*SPEF "ieee 1481-1999"
*DESIGN "mux2to1"
*DATE "08:23:22 Monday April 27, 2026"
*VENDOR "The OpenROAD Project"
*PROGRAM "OpenROAD"
*VERSION "26Q1-2966-g29d97c45b3"
*DESIGN_FLOW "NAME_SCOPE LOCAL" "PIN_CAP NONE"
*DIVIDER /
*DELIMITER :
*BUS_DELIMITER []
*T_UNIT 1 NS
*C_UNIT 1 PF
*R_UNIT 1 OHM
*L_UNIT 1 HENRY

*NAME_MAP
*1 in0[0]
*2 net1
*3 net2
*4 net3
*5 net4
*6 net5
*7 net6
*8 net7
*9 net8
*10 net9
*11 net10
*12 net11
*13 net12
*14 net13
*15 net14
*16 net15
*17 net16
*18 net18
*19 net19
*20 net20
*21 net21
*22 net22
*23 net23
*24 net24
*25 net25
*26 net17
*29 in0[1]
*30 in0[2]
*31 in0[3]
*32 in0[4]
*33 in0[5]
*34 in0[6]
*35 in0[7]
*36 in1[0]
*37 in1[1]
*38 in1[2]
*39 in1[3]
*40 in1[4]
*41 in1[5]
*42 in1[6]
*43 in1[7]
*44 sel
*45 out[0]
*46 out[1]
*47 out[2]
*48 out[3]
*49 out[4]
*50 out[5]
*51 out[6]
*52 out[7]
*53 input1
*54 _2_
*55 _3_
*56 _4_
*57 _5_
*58 _6_
*59 _7_
*60 _8_
*61 _9_
*62 PHY_EDGE_ROW_0_Right_0
*63 PHY_EDGE_ROW_1_Right_1
*64 PHY_EDGE_ROW_2_Right_2
*65 PHY_EDGE_ROW_3_Right_3
*66 PHY_EDGE_ROW_4_Right_4
*67 PHY_EDGE_ROW_5_Right_5
*68 PHY_EDGE_ROW_6_Right_6
*69 PHY_EDGE_ROW_7_Right_7
*70 PHY_EDGE_ROW_8_Right_8
*71 PHY_EDGE_ROW_9_Right_9
*72 PHY_EDGE_ROW_10_Right_10
*73 PHY_EDGE_ROW_11_Right_11
*74 PHY_EDGE_ROW_12_Right_12
*75 PHY_EDGE_ROW_13_Right_13
*76 PHY_EDGE_ROW_14_Right_14
*77 PHY_EDGE_ROW_15_Right_15
*78 PHY_EDGE_ROW_16_Right_16
*79 PHY_EDGE_ROW_17_Right_17
*80 PHY_EDGE_ROW_18_Right_18
*81 PHY_EDGE_ROW_19_Right_19
*82 PHY_EDGE_ROW_20_Right_20
*83 PHY_EDGE_ROW_21_Right_21
*84 PHY_EDGE_ROW_22_Right_22
*85 PHY_EDGE_ROW_23_Right_23
*86 PHY_EDGE_ROW_24_Right_24
*87 PHY_EDGE_ROW_25_Right_25
*88 PHY_EDGE_ROW_26_Right_26
*89 PHY_EDGE_ROW_27_Right_27
*90 PHY_EDGE_ROW_28_Right_28
*91 PHY_EDGE_ROW_29_Right_29
*92 PHY_EDGE_ROW_30_Right_30
*93 PHY_EDGE_ROW_31_Right_31
*94 PHY_EDGE_ROW_32_Right_32
*95 PHY_EDGE_ROW_33_Right_33
*96 PHY_EDGE_ROW_34_Right_34
*97 PHY_EDGE_ROW_35_Right_35
*98 PHY_EDGE_ROW_36_Right_36
*99 PHY_EDGE_ROW_37_Right_37
*100 PHY_EDGE_ROW_38_Right_38
*101 PHY_EDGE_ROW_39_Right_39
*102 PHY_EDGE_ROW_40_Right_40
*103 PHY_EDGE_ROW_41_Right_41
*104 PHY_EDGE_ROW_42_Right_42
*105 PHY_EDGE_ROW_43_Right_43
*106 PHY_EDGE_ROW_44_Right_44
*107 PHY_EDGE_ROW_45_Right_45
*108 PHY_EDGE_ROW_46_Right_46
*109 PHY_EDGE_ROW_47_Right_47
*110 PHY_EDGE_ROW_48_Right_48
*111 PHY_EDGE_ROW_49_Right_49
*112 PHY_EDGE_ROW_50_Right_50
*113 PHY_EDGE_ROW_51_Right_51
*114 PHY_EDGE_ROW_52_Right_52
*115 PHY_EDGE_ROW_53_Right_53
*116 PHY_EDGE_ROW_54_Right_54
*117 PHY_EDGE_ROW_55_Right_55
*118 PHY_EDGE_ROW_0_Left_56
*119 PHY_EDGE_ROW_1_Left_57
*120 PHY_EDGE_ROW_2_Left_58
*121 PHY_EDGE_ROW_3_Left_59
*122 PHY_EDGE_ROW_4_Left_60
*123 PHY_EDGE_ROW_5_Left_61
*124 PHY_EDGE_ROW_6_Left_62
*125 PHY_EDGE_ROW_7_Left_63
*126 PHY_EDGE_ROW_8_Left_64
*127 PHY_EDGE_ROW_9_Left_65
*128 PHY_EDGE_ROW_10_Left_66
*129 PHY_EDGE_ROW_11_Left_67
*130 PHY_EDGE_ROW_12_Left_68
*131 PHY_EDGE_ROW_13_Left_69
*132 PHY_EDGE_ROW_14_Left_70
*133 PHY_EDGE_ROW_15_Left_71
*134 PHY_EDGE_ROW_16_Left_72
*135 PHY_EDGE_ROW_17_Left_73
*136 PHY_EDGE_ROW_18_Left_74
*137 PHY_EDGE_ROW_19_Left_75
*138 PHY_EDGE_ROW_20_Left_76
*139 PHY_EDGE_ROW_21_Left_77
*140 PHY_EDGE_ROW_22_Left_78
*141 PHY_EDGE_ROW_23_Left_79
*142 PHY_EDGE_ROW_24_Left_80
*143 PHY_EDGE_ROW_25_Left_81
*144 PHY_EDGE_ROW_26_Left_82
*145 PHY_EDGE_ROW_27_Left_83
*146 PHY_EDGE_ROW_28_Left_84
*147 PHY_EDGE_ROW_29_Left_85
*148 PHY_EDGE_ROW_30_Left_86
*149 PHY_EDGE_ROW_31_Left_87
*150 PHY_EDGE_ROW_32_Left_88
*151 PHY_EDGE_ROW_33_Left_89
*152 PHY_EDGE_ROW_34_Left_90
*153 PHY_EDGE_ROW_35_Left_91
*154 PHY_EDGE_ROW_36_Left_92
*155 PHY_EDGE_ROW_37_Left_93
*156 PHY_EDGE_ROW_38_Left_94
*157 PHY_EDGE_ROW_39_Left_95
*158 PHY_EDGE_ROW_40_Left_96
*159 PHY_EDGE_ROW_41_Left_97
*160 PHY_EDGE_ROW_42_Left_98
*161 PHY_EDGE_ROW_43_Left_99
*162 PHY_EDGE_ROW_44_Left_100
*163 PHY_EDGE_ROW_45_Left_101
*164 PHY_EDGE_ROW_46_Left_102
*165 PHY_EDGE_ROW_47_Left_103
*166 PHY_EDGE_ROW_48_Left_104
*167 PHY_EDGE_ROW_49_Left_105
*168 PHY_EDGE_ROW_50_Left_106
*169 PHY_EDGE_ROW_51_Left_107
*170 PHY_EDGE_ROW_52_Left_108
*171 PHY_EDGE_ROW_53_Left_109
*172 PHY_EDGE_ROW_54_Left_110
*173 PHY_EDGE_ROW_55_Left_111
*174 input2
*175 input3
*176 input4
*177 input5
*178 input6
*179 input7
*180 input8
*181 input9
*182 input10
*183 input11
*184 input12
*185 input13
*186 input14
*187 input15
*188 input16
*189 input17
*190 output18
*191 output19
*192 output20
*193 output21
*194 output22
*195 output23
*196 output24
*197 output25
*198 FILLER_0_1
*199 FILLER_0_33
*200 FILLER_0_65
*201 FILLER_0_97
*202 FILLER_0_129
*203 FILLER_0_161
*204 FILLER_0_193
*205 FILLER_0_225
*206 FILLER_0_257
*207 FILLER_0_289
*208 FILLER_0_321
*209 FILLER_0_353
*210 FILLER_0_385
*211 FILLER_0_417
*212 FILLER_1_1
*213 FILLER_1_33
*214 FILLER_1_65
*215 FILLER_1_97
*216 FILLER_1_129
*217 FILLER_1_161
*218 FILLER_1_193
*219 FILLER_1_225
*220 FILLER_1_257
*221 FILLER_1_289
*222 FILLER_1_321
*223 FILLER_1_353
*224 FILLER_1_385
*225 FILLER_1_417
*226 FILLER_2_1
*227 FILLER_2_33
*228 FILLER_2_65
*229 FILLER_2_97
*230 FILLER_2_129
*231 FILLER_2_161
*232 FILLER_2_193
*233 FILLER_2_225
*234 FILLER_2_257
*235 FILLER_2_289
*236 FILLER_2_321
*237 FILLER_2_353
*238 FILLER_2_385
*239 FILLER_2_417
*240 FILLER_3_1
*241 FILLER_3_33
*242 FILLER_3_65
*243 FILLER_3_97
*244 FILLER_3_129
*245 FILLER_3_161
*246 FILLER_3_193
*247 FILLER_3_225
*248 FILLER_3_257
*249 FILLER_3_289
*250 FILLER_3_321
*251 FILLER_3_353
*252 FILLER_3_385
*253 FILLER_3_417
*254 FILLER_4_1
*255 FILLER_4_33
*256 FILLER_4_65
*257 FILLER_4_97
*258 FILLER_4_129
*259 FILLER_4_161
*260 FILLER_4_193
*261 FILLER_4_225
*262 FILLER_4_257
*263 FILLER_4_289
*264 FILLER_4_321
*265 FILLER_4_353
*266 FILLER_4_385
*267 FILLER_4_417
*268 FILLER_5_1
*269 FILLER_5_33
*270 FILLER_5_65
*271 FILLER_5_97
*272 FILLER_5_129
*273 FILLER_5_161
*274 FILLER_5_193
*275 FILLER_5_225
*276 FILLER_5_257
*277 FILLER_5_289
*278 FILLER_5_321
*279 FILLER_5_353
*280 FILLER_5_385
*281 FILLER_5_417
*282 FILLER_6_1
*283 FILLER_6_33
*284 FILLER_6_65
*285 FILLER_6_97
*286 FILLER_6_129
*287 FILLER_6_161
*288 FILLER_6_193
*289 FILLER_6_225
*290 FILLER_6_257
*291 FILLER_6_289
*292 FILLER_6_321
*293 FILLER_6_353
*294 FILLER_6_385
*295 FILLER_6_417
*296 FILLER_7_1
*297 FILLER_7_33
*298 FILLER_7_65
*299 FILLER_7_97
*300 FILLER_7_129
*301 FILLER_7_161
*302 FILLER_7_193
*303 FILLER_7_225
*304 FILLER_7_257
*305 FILLER_7_289
*306 FILLER_7_321
*307 FILLER_7_353
*308 FILLER_7_385
*309 FILLER_7_417
*310 FILLER_8_1
*311 FILLER_8_33
*312 FILLER_8_65
*313 FILLER_8_97
*314 FILLER_8_129
*315 FILLER_8_161
*316 FILLER_8_193
*317 FILLER_8_225
*318 FILLER_8_257
*319 FILLER_8_289
*320 FILLER_8_321
*321 FILLER_8_353
*322 FILLER_8_385
*323 FILLER_8_417
*324 FILLER_9_1
*325 FILLER_9_33
*326 FILLER_9_65
*327 FILLER_9_97
*328 FILLER_9_129
*329 FILLER_9_161
*330 FILLER_9_193
*331 FILLER_9_225
*332 FILLER_9_257
*333 FILLER_9_289
*334 FILLER_9_321
*335 FILLER_9_353
*336 FILLER_9_385
*337 FILLER_9_417
*338 FILLER_10_1
*339 FILLER_10_33
*340 FILLER_10_65
*341 FILLER_10_97
*342 FILLER_10_129
*343 FILLER_10_161
*344 FILLER_10_193
*345 FILLER_10_225
*346 FILLER_10_257
*347 FILLER_10_289
*348 FILLER_10_321
*349 FILLER_10_353
*350 FILLER_10_385
*351 FILLER_10_417
*352 FILLER_11_1
*353 FILLER_11_33
*354 FILLER_11_65
*355 FILLER_11_97
*356 FILLER_11_129
*357 FILLER_11_161
*358 FILLER_11_193
*359 FILLER_11_225
*360 FILLER_11_257
*361 FILLER_11_289
*362 FILLER_11_321
*363 FILLER_11_353
*364 FILLER_11_385
*365 FILLER_11_417
*366 FILLER_12_1
*367 FILLER_12_33
*368 FILLER_12_65
*369 FILLER_12_97
*370 FILLER_12_129
*371 FILLER_12_161
*372 FILLER_12_193
*373 FILLER_12_225
*374 FILLER_12_257
*375 FILLER_12_289
*376 FILLER_12_321
*377 FILLER_12_353
*378 FILLER_12_385
*379 FILLER_12_417
*380 FILLER_13_1
*381 FILLER_13_33
*382 FILLER_13_65
*383 FILLER_13_97
*384 FILLER_13_129
*385 FILLER_13_161
*386 FILLER_13_193
*387 FILLER_13_225
*388 FILLER_13_257
*389 FILLER_13_289
*390 FILLER_13_321
*391 FILLER_13_353
*392 FILLER_13_385
*393 FILLER_13_417
*394 FILLER_14_1
*395 FILLER_14_33
*396 FILLER_14_65
*397 FILLER_14_97
*398 FILLER_14_129
*399 FILLER_14_161
*400 FILLER_14_193
*401 FILLER_14_225
*402 FILLER_14_257
*403 FILLER_14_289
*404 FILLER_14_321
*405 FILLER_14_353
*406 FILLER_14_385
*407 FILLER_14_417
*408 FILLER_15_1
*409 FILLER_15_33
*410 FILLER_15_65
*411 FILLER_15_97
*412 FILLER_15_129
*413 FILLER_15_161
*414 FILLER_15_193
*415 FILLER_15_225
*416 FILLER_15_257
*417 FILLER_15_289
*418 FILLER_15_321
*419 FILLER_15_353
*420 FILLER_15_385
*421 FILLER_15_417
*422 FILLER_16_1
*423 FILLER_16_33
*424 FILLER_16_65
*425 FILLER_16_97
*426 FILLER_16_129
*427 FILLER_16_161
*428 FILLER_16_193
*429 FILLER_16_225
*430 FILLER_16_257
*431 FILLER_16_289
*432 FILLER_16_321
*433 FILLER_16_353
*434 FILLER_16_385
*435 FILLER_16_417
*436 FILLER_17_1
*437 FILLER_17_33
*438 FILLER_17_65
*439 FILLER_17_97
*440 FILLER_17_129
*441 FILLER_17_161
*442 FILLER_17_193
*443 FILLER_17_225
*444 FILLER_17_257
*445 FILLER_17_289
*446 FILLER_17_321
*447 FILLER_17_353
*448 FILLER_17_385
*449 FILLER_17_417
*450 FILLER_18_1
*451 FILLER_18_33
*452 FILLER_18_65
*453 FILLER_18_97
*454 FILLER_18_129
*455 FILLER_18_161
*456 FILLER_18_193
*457 FILLER_18_225
*458 FILLER_18_257
*459 FILLER_18_289
*460 FILLER_18_321
*461 FILLER_18_353
*462 FILLER_18_385
*463 FILLER_18_417
*464 FILLER_19_1
*465 FILLER_19_33
*466 FILLER_19_65
*467 FILLER_19_97
*468 FILLER_19_129
*469 FILLER_19_161
*470 FILLER_19_193
*471 FILLER_19_225
*472 FILLER_19_257
*473 FILLER_19_289
*474 FILLER_19_321
*475 FILLER_19_353
*476 FILLER_19_385
*477 FILLER_19_417
*478 FILLER_20_1
*479 FILLER_20_33
*480 FILLER_20_65
*481 FILLER_20_97
*482 FILLER_20_129
*483 FILLER_20_161
*484 FILLER_20_193
*485 FILLER_20_225
*486 FILLER_20_257
*487 FILLER_20_289
*488 FILLER_20_321
*489 FILLER_20_353
*490 FILLER_20_385
*491 FILLER_20_417
*492 FILLER_21_1
*493 FILLER_21_33
*494 FILLER_21_65
*495 FILLER_21_97
*496 FILLER_21_129
*497 FILLER_21_161
*498 FILLER_21_193
*499 FILLER_21_225
*500 FILLER_21_257
*501 FILLER_21_289
*502 FILLER_21_321
*503 FILLER_21_353
*504 FILLER_21_385
*505 FILLER_21_417
*506 FILLER_22_1
*507 FILLER_22_33
*508 FILLER_22_65
*509 FILLER_22_97
*510 FILLER_22_129
*511 FILLER_22_161
*512 FILLER_22_193
*513 FILLER_22_225
*514 FILLER_22_257
*515 FILLER_22_289
*516 FILLER_22_321
*517 FILLER_22_353
*518 FILLER_22_385
*519 FILLER_22_417
*520 FILLER_23_1
*521 FILLER_23_33
*522 FILLER_23_65
*523 FILLER_23_97
*524 FILLER_23_129
*525 FILLER_23_161
*526 FILLER_23_193
*527 FILLER_23_225
*528 FILLER_23_257
*529 FILLER_23_289
*530 FILLER_23_321
*531 FILLER_23_353
*532 FILLER_23_385
*533 FILLER_23_417
*534 FILLER_24_1
*535 FILLER_24_33
*536 FILLER_24_65
*537 FILLER_24_97
*538 FILLER_24_129
*539 FILLER_24_161
*540 FILLER_24_193
*541 FILLER_24_225
*542 FILLER_24_257
*543 FILLER_24_289
*544 FILLER_24_321
*545 FILLER_24_353
*546 FILLER_24_385
*547 FILLER_24_417
*548 FILLER_25_1
*549 FILLER_25_33
*550 FILLER_25_65
*551 FILLER_25_97
*552 FILLER_25_129
*553 FILLER_25_161
*554 FILLER_25_193
*555 FILLER_25_225
*556 FILLER_25_257
*557 FILLER_25_289
*558 FILLER_25_321
*559 FILLER_25_353
*560 FILLER_25_385
*561 FILLER_25_417
*562 FILLER_26_1
*563 FILLER_26_33
*564 FILLER_26_65
*565 FILLER_26_97
*566 FILLER_26_129
*567 FILLER_26_161
*568 FILLER_26_193
*569 FILLER_26_225
*570 FILLER_26_257
*571 FILLER_26_289
*572 FILLER_26_321
*573 FILLER_26_353
*574 FILLER_26_385
*575 FILLER_26_417
*576 FILLER_27_1
*577 FILLER_27_33
*578 FILLER_27_65
*579 FILLER_27_97
*580 FILLER_27_129
*581 FILLER_27_161
*582 FILLER_27_193
*583 FILLER_27_225
*584 FILLER_27_257
*585 FILLER_27_289
*586 FILLER_27_321
*587 FILLER_27_353
*588 FILLER_27_385
*589 FILLER_27_417
*590 FILLER_28_1
*591 FILLER_28_33
*592 FILLER_28_65
*593 FILLER_28_97
*594 FILLER_28_129
*595 FILLER_28_161
*596 FILLER_28_169
*597 FILLER_28_176
*598 FILLER_28_208
*599 FILLER_28_240
*600 FILLER_28_272
*601 FILLER_28_304
*602 FILLER_28_336
*603 FILLER_28_368
*604 FILLER_28_400
*605 FILLER_28_416
*606 FILLER_28_418
*607 FILLER_29_1
*608 FILLER_29_33
*609 FILLER_29_65
*610 FILLER_29_97
*611 FILLER_29_129
*612 FILLER_29_161
*613 FILLER_29_193
*614 FILLER_29_225
*615 FILLER_29_257
*616 FILLER_29_289
*617 FILLER_29_321
*618 FILLER_29_353
*619 FILLER_29_385
*620 FILLER_29_417
*621 FILLER_30_1
*622 FILLER_30_33
*623 FILLER_30_65
*624 FILLER_30_97
*625 FILLER_30_129
*626 FILLER_30_161
*627 FILLER_30_193
*628 FILLER_30_225
*629 FILLER_30_257
*630 FILLER_30_289
*631 FILLER_30_321
*632 FILLER_30_353
*633 FILLER_30_385
*634 FILLER_30_417
*635 FILLER_31_1
*636 FILLER_31_33
*637 FILLER_31_65
*638 FILLER_31_97
*639 FILLER_31_129
*640 FILLER_31_161
*641 FILLER_31_193
*642 FILLER_31_225
*643 FILLER_31_257
*644 FILLER_31_289
*645 FILLER_31_321
*646 FILLER_31_353
*647 FILLER_31_385
*648 FILLER_31_417
*649 FILLER_32_1
*650 FILLER_32_33
*651 FILLER_32_65
*652 FILLER_32_97
*653 FILLER_32_129
*654 FILLER_32_161
*655 FILLER_32_193
*656 FILLER_32_225
*657 FILLER_32_257
*658 FILLER_32_289
*659 FILLER_32_321
*660 FILLER_32_353
*661 FILLER_32_385
*662 FILLER_32_417
*663 FILLER_33_1
*664 FILLER_33_33
*665 FILLER_33_65
*666 FILLER_33_97
*667 FILLER_33_129
*668 FILLER_33_161
*669 FILLER_33_193
*670 FILLER_33_225
*671 FILLER_33_257
*672 FILLER_33_289
*673 FILLER_33_321
*674 FILLER_33_353
*675 FILLER_33_385
*676 FILLER_33_417
*677 FILLER_34_1
*678 FILLER_34_33
*679 FILLER_34_65
*680 FILLER_34_97
*681 FILLER_34_129
*682 FILLER_34_161
*683 FILLER_34_193
*684 FILLER_34_225
*685 FILLER_34_257
*686 FILLER_34_289
*687 FILLER_34_321
*688 FILLER_34_353
*689 FILLER_34_385
*690 FILLER_34_417
*691 FILLER_35_1
*692 FILLER_35_33
*693 FILLER_35_65
*694 FILLER_35_97
*695 FILLER_35_129
*696 FILLER_35_161
*697 FILLER_35_193
*698 FILLER_35_225
*699 FILLER_35_257
*700 FILLER_35_289
*701 FILLER_35_321
*702 FILLER_35_353
*703 FILLER_35_385
*704 FILLER_35_417
*705 FILLER_36_1
*706 FILLER_36_33
*707 FILLER_36_65
*708 FILLER_36_97
*709 FILLER_36_129
*710 FILLER_36_161
*711 FILLER_36_193
*712 FILLER_36_225
*713 FILLER_36_257
*714 FILLER_36_289
*715 FILLER_36_321
*716 FILLER_36_353
*717 FILLER_36_385
*718 FILLER_36_417
*719 FILLER_37_1
*720 FILLER_37_33
*721 FILLER_37_65
*722 FILLER_37_97
*723 FILLER_37_129
*724 FILLER_37_161
*725 FILLER_37_193
*726 FILLER_37_225
*727 FILLER_37_257
*728 FILLER_37_289
*729 FILLER_37_321
*730 FILLER_37_353
*731 FILLER_37_385
*732 FILLER_37_417
*733 FILLER_38_1
*734 FILLER_38_33
*735 FILLER_38_65
*736 FILLER_38_97
*737 FILLER_38_129
*738 FILLER_38_161
*739 FILLER_38_193
*740 FILLER_38_225
*741 FILLER_38_257
*742 FILLER_38_289
*743 FILLER_38_321
*744 FILLER_38_353
*745 FILLER_38_385
*746 FILLER_38_417
*747 FILLER_39_1
*748 FILLER_39_33
*749 FILLER_39_65
*750 FILLER_39_97
*751 FILLER_39_129
*752 FILLER_39_161
*753 FILLER_39_193
*754 FILLER_39_225
*755 FILLER_39_257
*756 FILLER_39_289
*757 FILLER_39_321
*758 FILLER_39_353
*759 FILLER_39_385
*760 FILLER_39_417
*761 FILLER_40_1
*762 FILLER_40_33
*763 FILLER_40_65
*764 FILLER_40_97
*765 FILLER_40_129
*766 FILLER_40_161
*767 FILLER_40_193
*768 FILLER_40_225
*769 FILLER_40_257
*770 FILLER_40_289
*771 FILLER_40_321
*772 FILLER_40_353
*773 FILLER_40_385
*774 FILLER_40_417
*775 FILLER_41_1
*776 FILLER_41_33
*777 FILLER_41_65
*778 FILLER_41_97
*779 FILLER_41_129
*780 FILLER_41_161
*781 FILLER_41_193
*782 FILLER_41_225
*783 FILLER_41_257
*784 FILLER_41_289
*785 FILLER_41_321
*786 FILLER_41_353
*787 FILLER_41_385
*788 FILLER_41_417
*789 FILLER_42_1
*790 FILLER_42_33
*791 FILLER_42_65
*792 FILLER_42_97
*793 FILLER_42_129
*794 FILLER_42_161
*795 FILLER_42_193
*796 FILLER_42_225
*797 FILLER_42_257
*798 FILLER_42_289
*799 FILLER_42_321
*800 FILLER_42_353
*801 FILLER_42_385
*802 FILLER_42_417
*803 FILLER_43_1
*804 FILLER_43_33
*805 FILLER_43_65
*806 FILLER_43_97
*807 FILLER_43_129
*808 FILLER_43_161
*809 FILLER_43_193
*810 FILLER_43_225
*811 FILLER_43_257
*812 FILLER_43_289
*813 FILLER_43_321
*814 FILLER_43_353
*815 FILLER_43_385
*816 FILLER_43_417
*817 FILLER_44_1
*818 FILLER_44_33
*819 FILLER_44_65
*820 FILLER_44_97
*821 FILLER_44_129
*822 FILLER_44_161
*823 FILLER_44_193
*824 FILLER_44_225
*825 FILLER_44_257
*826 FILLER_44_289
*827 FILLER_44_321
*828 FILLER_44_353
*829 FILLER_44_385
*830 FILLER_44_417
*831 FILLER_45_1
*832 FILLER_45_33
*833 FILLER_45_65
*834 FILLER_45_97
*835 FILLER_45_129
*836 FILLER_45_161
*837 FILLER_45_193
*838 FILLER_45_225
*839 FILLER_45_257
*840 FILLER_45_289
*841 FILLER_45_321
*842 FILLER_45_353
*843 FILLER_45_385
*844 FILLER_45_417
*845 FILLER_46_1
*846 FILLER_46_33
*847 FILLER_46_65
*848 FILLER_46_97
*849 FILLER_46_129
*850 FILLER_46_161
*851 FILLER_46_193
*852 FILLER_46_225
*853 FILLER_46_257
*854 FILLER_46_289
*855 FILLER_46_321
*856 FILLER_46_353
*857 FILLER_46_385
*858 FILLER_46_417
*859 FILLER_47_1
*860 FILLER_47_33
*861 FILLER_47_65
*862 FILLER_47_97
*863 FILLER_47_129
*864 FILLER_47_161
*865 FILLER_47_193
*866 FILLER_47_225
*867 FILLER_47_257
*868 FILLER_47_289
*869 FILLER_47_321
*870 FILLER_47_353
*871 FILLER_47_385
*872 FILLER_47_417
*873 FILLER_48_1
*874 FILLER_48_33
*875 FILLER_48_65
*876 FILLER_48_97
*877 FILLER_48_129
*878 FILLER_48_161
*879 FILLER_48_193
*880 FILLER_48_225
*881 FILLER_48_257
*882 FILLER_48_289
*883 FILLER_48_321
*884 FILLER_48_353
*885 FILLER_48_385
*886 FILLER_48_417
*887 FILLER_49_1
*888 FILLER_49_33
*889 FILLER_49_65
*890 FILLER_49_97
*891 FILLER_49_129
*892 FILLER_49_161
*893 FILLER_49_193
*894 FILLER_49_225
*895 FILLER_49_257
*896 FILLER_49_289
*897 FILLER_49_321
*898 FILLER_49_353
*899 FILLER_49_385
*900 FILLER_49_417
*901 FILLER_50_1
*902 FILLER_50_33
*903 FILLER_50_65
*904 FILLER_50_97
*905 FILLER_50_129
*906 FILLER_50_161
*907 FILLER_50_193
*908 FILLER_50_225
*909 FILLER_50_257
*910 FILLER_50_289
*911 FILLER_50_321
*912 FILLER_50_353
*913 FILLER_50_385
*914 FILLER_50_417
*915 FILLER_51_1
*916 FILLER_51_33
*917 FILLER_51_65
*918 FILLER_51_97
*919 FILLER_51_129
*920 FILLER_51_161
*921 FILLER_51_193
*922 FILLER_51_225
*923 FILLER_51_257
*924 FILLER_51_289
*925 FILLER_51_321
*926 FILLER_51_353
*927 FILLER_51_385
*928 FILLER_51_417
*929 FILLER_52_1
*930 FILLER_52_33
*931 FILLER_52_65
*932 FILLER_52_97
*933 FILLER_52_129
*934 FILLER_52_161
*935 FILLER_52_193
*936 FILLER_52_201
*937 FILLER_52_218
*938 FILLER_52_250
*939 FILLER_52_282
*940 FILLER_52_314
*941 FILLER_52_346
*942 FILLER_52_378
*943 FILLER_52_410
*944 FILLER_52_418
*945 FILLER_53_1
*946 FILLER_53_33
*947 FILLER_53_65
*948 FILLER_53_97
*949 FILLER_53_129
*950 FILLER_53_161
*951 FILLER_53_193
*952 FILLER_53_201
*953 FILLER_53_206
*954 FILLER_53_223
*955 FILLER_53_255
*956 FILLER_53_287
*957 FILLER_53_319
*958 FILLER_53_351
*959 FILLER_53_383
*960 FILLER_53_415
*961 FILLER_54_1
*962 FILLER_54_33
*963 FILLER_54_65
*964 FILLER_54_97
*965 FILLER_54_129
*966 FILLER_54_161
*967 FILLER_54_177
*968 FILLER_54_185
*969 FILLER_54_199
*970 FILLER_54_220
*971 FILLER_54_224
*972 FILLER_54_229
*973 FILLER_54_261
*974 FILLER_54_293
*975 FILLER_54_325
*976 FILLER_54_357
*977 FILLER_54_389
*978 FILLER_54_405
*979 FILLER_54_413
*980 FILLER_54_417
*981 FILLER_55_1
*982 FILLER_55_33
*983 FILLER_55_65
*984 FILLER_55_97
*985 FILLER_55_129
*986 FILLER_55_161
*987 FILLER_55_177
*988 FILLER_55_184
*989 FILLER_55_195
*990 FILLER_55_238
*991 FILLER_55_243
*992 FILLER_55_275
*993 FILLER_55_307
*994 FILLER_55_339
*995 FILLER_55_371
*996 FILLER_55_403

*PORTS
in0[0] I
in0[1] I
in0[2] I
in0[3] I
in0[4] I
in0[5] I
in0[6] I
in0[7] I
in1[0] I
in1[1] I
in1[2] I
in1[3] I
in1[4] I
in1[5] I
in1[6] I
in1[7] I
out[0] O
out[1] O
out[2] O
out[3] O
out[4] O
out[5] O
out[6] O
out[7] O
sel I

*D_NET *1 0.000908942
*CONN
*P in0[0] I
*I *53:A I *D BUF_X1
*CAP
1 in0[0] 0.00031199
2 *53:A 0.00031199
3 *53:A *178:A 0.000284962
*RES
1 in0[0] *53:A 38.755 
*END

*D_NET *2 0.000829
*CONN
*I *59:A I *D MUX2_X1
*I *53:Z O *D BUF_X1
*CAP
1 *59:A 0
2 *53:Z 0.000250573
3 *2:12 0.000250573
4 *2:12 *54:A 2.78604e-06
5 *2:12 *55:B 1.58163e-05
6 *2:12 *59:B 2.14856e-06
7 *2:12 *59:S 9.03695e-06
8 *2:12 *61:A 0.000180035
9 *2:12 *61:B 0.000104388
10 *2:12 *178:A 5.67548e-06
11 *2:12 *186:A 4.81867e-06
12 *2:12 *48:14 2.83077e-06
13 *2:12 *51:16 3.19164e-07
*RES
1 *53:Z *2:12 45.6786 
2 *2:12 *59:A 5 
*END

*D_NET *3 7.72067e-05
*CONN
*I *58:A I *D MUX2_X1
*I *174:Z O *D BUF_X1
*CAP
1 *58:A 3.40108e-05
2 *174:Z 3.40108e-05
3 *58:A *58:B 7.16188e-07
4 *58:A *58:S 7.19234e-06
5 *58:A *37:19 1.27666e-06
*RES
1 *174:Z *58:A 13.75 
*END

*D_NET *4 9.84506e-05
*CONN
*I *57:A I *D MUX2_X1
*I *175:Z O *D BUF_X1
*CAP
1 *57:A 4.02553e-05
2 *175:Z 4.02553e-05
3 *57:A *57:B 1.51866e-05
4 *57:A *57:S 2.75346e-06
*RES
1 *175:Z *57:A 14.6786 
*END

*D_NET *5 4.53037e-05
*CONN
*I *56:A I *D MUX2_X1
*I *176:Z O *D BUF_X1
*CAP
1 *56:A 2.16944e-05
2 *176:Z 2.16944e-05
3 *56:A *56:B 1.91498e-06
4 *56:A *58:B 0
5 *56:A *176:A 0
6 *56:A *191:A 0
*RES
1 *176:Z *56:A 12.3571 
*END

*D_NET *6 4.77114e-05
*CONN
*I *55:A I *D MUX2_X1
*I *177:Z O *D BUF_X1
*CAP
1 *55:A 1.90973e-05
2 *177:Z 1.90973e-05
3 *55:A *55:B 7.16188e-07
4 *55:A *177:A 9.62051e-07
5 *55:A *26:81 6.56185e-06
6 *55:A *52:16 1.27666e-06
*RES
1 *177:Z *55:A 12.3571 
*END

*D_NET *7 0.000365705
*CONN
*I *61:A I *D MUX2_X1
*I *178:Z O *D BUF_X1
*CAP
1 *61:A 6.53131e-05
2 *178:Z 6.53131e-05
3 *61:A *54:A 4.95509e-06
4 *61:A *61:B 1.39839e-06
5 *61:A *175:A 3.80207e-05
6 *61:A *183:A 7.57858e-06
7 *61:A *188:A 3.09143e-06
8 *2:12 *61:A 0.000180035
*RES
1 *178:Z *61:A 30.5 
*END

*D_NET *8 0.000405304
*CONN
*I *54:A I *D MUX2_X1
*I *179:Z O *D BUF_X1
*CAP
1 *54:A 0.000129505
2 *179:Z 0.000129505
3 *54:A *54:B 6.11161e-06
4 *54:A *56:B 0
5 *54:A *61:B 1.21235e-05
6 *54:A *186:A 8.21915e-06
7 *54:A *187:A 7.18615e-05
8 *54:A *26:16 0
9 *54:A *26:72 2.39679e-06
10 *54:A *26:81 3.78407e-05
11 *61:A *54:A 4.95509e-06
12 *2:12 *54:A 2.78604e-06
*RES
1 *179:Z *54:A 35.5357 
*END

*D_NET *9 0.000103965
*CONN
*I *60:A I *D MUX2_X1
*I *180:Z O *D BUF_X1
*CAP
1 *60:A 3.81597e-05
2 *180:Z 3.81597e-05
3 *60:A *60:S 4.21607e-06
4 *60:A *176:A 8.64288e-07
5 *60:A *26:46 2.25658e-05
*RES
1 *180:Z *60:A 14.1786 
*END

*D_NET *10 0.000306384
*CONN
*I *59:B I *D MUX2_X1
*I *181:Z O *D BUF_X1
*CAP
1 *59:B 8.55655e-05
2 *181:Z 8.55655e-05
3 *59:B *55:B 3.98238e-05
4 *59:B *56:B 1.4293e-06
5 *59:B *181:A 3.07768e-05
6 *59:B *184:A 5.33494e-05
7 *59:B *51:16 7.72537e-06
8 *2:12 *59:B 2.14856e-06
*RES
1 *181:Z *59:B 31.8571 
*END

*D_NET *11 9.24832e-05
*CONN
*I *58:B I *D MUX2_X1
*I *182:Z O *D BUF_X1
*CAP
1 *58:B 4.39412e-05
2 *182:Z 4.39412e-05
3 *58:B *58:S 3.88456e-06
4 *58:B *176:A 0
5 *56:A *58:B 0
6 *58:A *58:B 7.16188e-07
*RES
1 *182:Z *58:B 14.8929 
*END

*D_NET *12 0.00016793
*CONN
*I *57:B I *D MUX2_X1
*I *183:Z O *D BUF_X1
*CAP
1 *57:B 6.98745e-05
2 *183:Z 6.98745e-05
3 *57:B *188:A 1.29941e-05
4 *57:A *57:B 1.51866e-05
*RES
1 *183:Z *57:B 18.3929 
*END

*D_NET *13 0.000482657
*CONN
*I *56:B I *D MUX2_X1
*I *184:Z O *D BUF_X1
*CAP
1 *56:B 0.000174284
2 *184:Z 0.000174284
3 *56:B out[2] 2.91162e-05
4 *56:B *55:B 3.33194e-05
5 *56:B *59:S 1.9679e-05
6 *56:B *176:A 0
7 *56:B *184:A 7.14654e-06
8 *56:B *196:A 3.37274e-06
9 *56:B *48:14 2.1051e-05
10 *56:B *52:16 1.70588e-05
11 *54:A *56:B 0
12 *56:A *56:B 1.91498e-06
13 *59:B *56:B 1.4293e-06
*RES
1 *184:Z *56:B 42.3214 
*END

*D_NET *14 0.000345603
*CONN
*I *55:B I *D MUX2_X1
*I *185:Z O *D BUF_X1
*CAP
1 *55:B 8.46751e-05
2 *185:Z 8.46751e-05
3 *55:B *59:S 7.88492e-05
4 *55:B *31:19 0
5 *55:B *52:16 7.72792e-06
6 *55:A *55:B 7.16188e-07
7 *56:B *55:B 3.33194e-05
8 *59:B *55:B 3.98238e-05
9 *2:12 *55:B 1.58163e-05
*RES
1 *185:Z *55:B 33.2143 
*END

*D_NET *15 0.00022166
*CONN
*I *61:B I *D MUX2_X1
*I *186:Z O *D BUF_X1
*CAP
1 *61:B 3.76467e-05
2 *186:Z 3.76467e-05
3 *61:B *186:A 2.84576e-05
4 *61:B *31:19 0
5 *54:A *61:B 1.21235e-05
6 *61:A *61:B 1.39839e-06
7 *2:12 *61:B 0.000104388
*RES
1 *186:Z *61:B 26.4286 
*END

*D_NET *16 0.000288755
*CONN
*I *54:B I *D MUX2_X1
*I *187:Z O *D BUF_X1
*CAP
1 *54:B 7.20853e-05
2 *187:Z 7.20853e-05
3 *54:B *59:S 0
4 *54:B *60:B 6.52746e-05
5 *54:B *192:A 7.12677e-06
6 *54:B *197:A 6.60712e-05
7 *54:A *54:B 6.11161e-06
*RES
1 *187:Z *54:B 29.1429 
*END

*D_NET *17 0.000249876
*CONN
*I *60:B I *D MUX2_X1
*I *188:Z O *D BUF_X1
*CAP
1 *60:B 3.2862e-05
2 *188:Z 3.2862e-05
3 *60:B *187:A 1.62445e-06
4 *60:B *192:A 0.000117253
5 *54:B *60:B 6.52746e-05
*RES
1 *188:Z *60:B 26.3571 
*END

*D_NET *18 1.74261e-05
*CONN
*I *190:A I *D BUF_X1
*I *59:Z O *D MUX2_X1
*CAP
1 *190:A 8.71307e-06
2 *59:Z 8.71307e-06
3 *190:A *51:16 0
*RES
1 *59:Z *190:A 10.9286 
*END

*D_NET *19 1.74261e-05
*CONN
*I *191:A I *D BUF_X1
*I *58:Z O *D MUX2_X1
*CAP
1 *191:A 8.71307e-06
2 *58:Z 8.71307e-06
3 *56:A *191:A 0
*RES
1 *58:Z *191:A 10.9286 
*END

*D_NET *20 0.000683134
*CONN
*I *192:A I *D BUF_X1
*I *57:Z O *D MUX2_X1
*CAP
1 *192:A 0.000111653
2 *57:Z 0.000111653
3 *192:A *56:S 0
4 *192:A *196:A 1.71515e-05
5 *192:A *197:A 0.000105427
6 *192:A *26:16 3.02351e-05
7 *192:A *26:31 8.14137e-05
8 *192:A *26:42 4.00908e-05
9 *192:A *26:72 5.34003e-05
10 *192:A *37:19 0
11 *192:A *48:14 7.72792e-06
12 *54:B *192:A 7.12677e-06
13 *60:B *192:A 0.000117253
*RES
1 *57:Z *192:A 38.6429 
*END

*D_NET *21 1.75953e-05
*CONN
*I *193:A I *D BUF_X1
*I *56:Z O *D MUX2_X1
*CAP
1 *193:A 8.27474e-06
2 *56:Z 8.27474e-06
3 *193:A *48:14 1.04584e-06
*RES
1 *56:Z *193:A 10.9286 
*END

*D_NET *22 1.98064e-05
*CONN
*I *194:A I *D BUF_X1
*I *55:Z O *D MUX2_X1
*CAP
1 *194:A 6.62225e-06
2 *55:Z 6.62225e-06
3 *194:A *52:16 6.56185e-06
*RES
1 *55:Z *194:A 10.9286 
*END

*D_NET *23 1.74261e-05
*CONN
*I *195:A I *D BUF_X1
*I *61:Z O *D MUX2_X1
*CAP
1 *195:A 8.71307e-06
2 *61:Z 8.71307e-06
*RES
1 *61:Z *195:A 10.9286 
*END

*D_NET *24 0.000177057
*CONN
*I *196:A I *D BUF_X1
*I *54:Z O *D MUX2_X1
*CAP
1 *196:A 6.51153e-05
2 *54:Z 6.51153e-05
3 *196:A out[2] 9.5153e-06
4 *196:A *59:S 0
5 *196:A *197:A 1.67869e-05
6 *196:A *48:14 0
7 *56:B *196:A 3.37274e-06
8 *192:A *196:A 1.71515e-05
*RES
1 *54:Z *196:A 27.7857 
*END

*D_NET *25 0.000239179
*CONN
*I *197:A I *D BUF_X1
*I *60:Z O *D MUX2_X1
*CAP
1 *197:A 2.54469e-05
2 *60:Z 2.54469e-05
3 *54:B *197:A 6.60712e-05
4 *192:A *197:A 0.000105427
5 *196:A *197:A 1.67869e-05
*RES
1 *60:Z *197:A 25.6786 
*END

*D_NET *26 0.00422026
*CONN
*I *57:S I *D MUX2_X1
*I *55:S I *D MUX2_X1
*I *59:S I *D MUX2_X1
*I *54:S I *D MUX2_X1
*I *56:S I *D MUX2_X1
*I *58:S I *D MUX2_X1
*I *60:S I *D MUX2_X1
*I *61:S I *D MUX2_X1
*I *189:Z O *D BUF_X1
*CAP
1 *57:S 1.09767e-05
2 *55:S 0
3 *59:S 6.3939e-05
4 *54:S 0
5 *56:S 3.48627e-05
6 *58:S 4.56013e-05
7 *60:S 9.95729e-06
8 *61:S 5.18962e-05
9 *189:Z 8.73882e-05
10 *26:81 0.00011155
11 *26:72 8.05207e-05
12 *26:46 0.000110507
13 *26:42 8.18079e-05
14 *26:31 5.66802e-05
15 *26:16 0.000128401
16 *26:12 0.001353
17 *26:10 0.00138077
18 *56:S *174:A 1.27467e-05
19 *56:S *37:19 2.84256e-05
20 *58:S *176:A 0
21 *58:S *37:19 5.06354e-05
22 *59:S *48:14 2.52965e-06
23 *59:S *52:16 0
24 *60:S *187:A 2.16072e-07
25 *61:S *187:A 7.179e-06
26 *61:S *188:A 5.62733e-05
27 *26:16 *187:A 0
28 *26:31 *180:A 0
29 *26:42 *37:19 5.48235e-07
30 *26:46 *176:A 1.51469e-05
31 *26:46 *37:19 1.04788e-05
32 *26:72 *176:A 4.78054e-06
33 *26:72 *37:19 2.26892e-06
34 *26:81 *176:A 2.1051e-05
35 *26:81 *52:16 0
36 *54:A *26:16 0
37 *54:A *26:72 2.39679e-06
38 *54:A *26:81 3.78407e-05
39 *54:B *59:S 0
40 *55:A *26:81 6.56185e-06
41 *55:B *59:S 7.88492e-05
42 *56:B *59:S 1.9679e-05
43 *57:A *57:S 2.75346e-06
44 *58:A *58:S 7.19234e-06
45 *58:B *58:S 3.88456e-06
46 *60:A *60:S 4.21607e-06
47 *60:A *26:46 2.25658e-05
48 *192:A *56:S 0
49 *192:A *26:16 3.02351e-05
50 *192:A *26:31 8.14137e-05
51 *192:A *26:42 4.00908e-05
52 *192:A *26:72 5.34003e-05
53 *196:A *59:S 0
54 *2:12 *59:S 9.03695e-06
*RES
1 *189:Z *26:10 24.75 
2 *26:10 *26:12 128.75 
3 *26:12 *26:16 10.6786 
4 *26:16 *61:S 17.4286 
5 *26:16 *26:31 4.32143 
6 *26:31 *60:S 11.25 
7 *26:31 *26:42 2.28572 
8 *26:42 *26:46 9.25 
9 *26:46 *58:S 11.3571 
10 *26:46 *56:S 20 
11 *26:42 *26:72 9.21429 
12 *26:72 *54:S 5 
13 *26:72 *26:81 6.85715 
14 *26:81 *59:S 23.5357 
15 *26:81 *55:S 5 
16 *26:12 *57:S 6.25 
*END

*D_NET *29 0.00131286
*CONN
*P in0[1] I
*I *174:A I *D BUF_X1
*CAP
1 in0[1] 0.00032048
2 *174:A 0.00032048
3 *174:A *180:A 0.000340288
4 *174:A *186:A 0.000281794
5 *174:A *37:19 3.70756e-05
6 *56:S *174:A 1.27467e-05
*RES
1 in0[1] *174:A 42.6336 
*END

*D_NET *30 0.00106462
*CONN
*P in0[2] I
*I *175:A I *D BUF_X1
*CAP
1 in0[2] 0.000243269
2 *175:A 0.000243269
3 *175:A *179:A 0.000237306
4 *175:A *183:A 2.09609e-05
5 *175:A *187:A 0.000281794
6 *61:A *175:A 3.80207e-05
*RES
1 in0[2] *175:A 39.7907 
*END

*D_NET *31 0.00128071
*CONN
*P in0[3] I
*I *176:A I *D BUF_X1
*CAP
1 in0[3] 0.000254212
2 *176:A 0.000102494
3 *31:19 0.000356706
4 *176:A *187:A 0
5 *31:19 *177:A 7.71586e-05
6 *31:19 *180:A 0.000173245
7 *31:19 *32:15 0.000203139
8 *31:19 *50:8 7.19094e-05
9 *55:B *31:19 0
10 *56:A *176:A 0
11 *56:B *176:A 0
12 *58:B *176:A 0
13 *58:S *176:A 0
14 *60:A *176:A 8.64288e-07
15 *61:B *31:19 0
16 *26:46 *176:A 1.51469e-05
17 *26:72 *176:A 4.78054e-06
18 *26:81 *176:A 2.1051e-05
*RES
1 in0[3] *31:19 48.4722 
2 *31:19 *176:A 16.3571 
*END

*D_NET *32 0.00105964
*CONN
*P in0[4] I
*I *177:A I *D BUF_X1
*CAP
1 in0[4] 0.000159324
2 *177:A 0.000142601
3 *32:15 0.000301925
4 *177:A *50:8 1.28122e-06
5 *177:A *52:16 0
6 *32:15 *187:A 0.000173245
7 *55:A *177:A 9.62051e-07
8 *31:19 *177:A 7.71586e-05
9 *31:19 *32:15 0.000203139
*RES
1 in0[4] *32:15 33.2307 
2 *32:15 *177:A 22.75 
*END

*D_NET *33 0.000993532
*CONN
*P in0[5] I
*I *178:A I *D BUF_X1
*CAP
1 in0[5] 0.000237994
2 *178:A 0.000237994
3 *178:A *183:A 5.36613e-05
4 *178:A *43:15 0.000173245
5 *53:A *178:A 0.000284962
6 *2:12 *178:A 5.67548e-06
*RES
1 in0[5] *178:A 38.7907 
*END

*D_NET *34 0.00101876
*CONN
*P in0[6] I
*I *179:A I *D BUF_X1
*CAP
1 in0[6] 0.000263387
2 *179:A 0.000263387
3 *179:A *183:A 0.000238097
4 *179:A *188:A 1.65865e-05
5 *175:A *179:A 0.000237306
*RES
1 in0[6] *179:A 44.855 
*END

*D_NET *35 0.00125689
*CONN
*P in0[7] I
*I *180:A I *D BUF_X1
*CAP
1 in0[7] 0.000364298
2 *180:A 0.000364298
3 *180:A *187:A 1.47566e-05
4 *174:A *180:A 0.000340288