*SPEF "ieee 1481-1999"
*DESIGN "uart_tx"
*DATE "10:16:34 Monday May 11, 2026"
*VENDOR "The OpenROAD Project"
*PROGRAM "OpenROAD"
*VERSION "26Q1-2966-g29d97c45b3"
*DESIGN_FLOW "NAME_SCOPE LOCAL" "PIN_CAP NONE"
*DIVIDER /
*DELIMITER :
*BUS_DELIMITER []
*T_UNIT 1 NS
*C_UNIT 1 PF
*R_UNIT 1 OHM
*L_UNIT 1 HENRY

*NAME_MAP
*1 net1
*2 net2
*3 net3
*4 net4
*5 net5
*6 net6
*7 LCR[6]
*8 LCR[7]
*9 PCLK
*10 net7
*11 net8
*12 net9
*13 net10
*14 net11
*15 net12
*16 net13
*17 net14
*18 net15
*19 net18
*21 _0001_
*22 _0002_
*23 _0003_
*24 _0004_
*25 _0005_
*26 _0006_
*27 _0007_
*28 _0008_
*29 _0009_
*30 _0010_
*31 _0011_
*32 _0012_
*33 _0013_
*34 _0014_
*35 _0015_
*36 _0016_
*37 _0017_
*38 _0018_
*39 _0019_
*40 _0020_
*41 _0021_
*42 _0022_
*43 _0023_
*44 _0024_
*45 _0025_
*46 _0026_
*47 _0027_
*48 _0028_
*49 _0029_
*50 _0030_
*51 _0031_
*52 _0032_
*53 _0033_
*54 _0034_
*55 _0035_
*56 _0036_
*57 _0037_
*58 _0038_
*59 _0039_
*60 _0040_
*61 _0041_
*62 _0042_
*63 _0043_
*64 _0044_
*65 _0045_
*66 _0046_
*67 _0047_
*68 _0048_
*69 _0049_
*70 _0050_
*71 _0051_
*72 _0052_
*73 _0053_
*74 _0054_
*75 _0055_
*76 _0056_
*77 _0057_
*78 _0058_
*79 _0059_
*80 _0060_
*81 _0061_
*82 _0062_
*83 _0063_
*84 _0064_
*85 _0065_
*86 _0066_
*87 _0067_
*88 _0068_
*89 _0069_
*90 _0070_
*91 _0071_
*92 _0072_
*93 _0073_
*94 _0074_
*95 _0075_
*96 _0076_
*97 _0077_
*98 _0078_
*99 _0079_
*100 _0080_
*101 _0081_
*102 _0082_
*103 _0083_
*104 _0084_
*105 _0085_
*106 _0086_
*107 _0087_
*108 _0088_
*109 _0089_
*110 _0090_
*111 _0091_
*112 _0092_
*113 _0093_
*114 _0094_
*115 _0095_
*116 _0096_
*117 _0097_
*118 _0098_
*119 _0099_
*120 _0100_
*121 _0101_
*122 _0102_
*123 _0103_
*124 _0104_
*125 _0105_
*126 _0106_
*127 _0107_
*128 _0108_
*129 _0109_
*130 _0110_
*131 _0111_
*132 _0112_
*133 _0113_
*134 _0114_
*135 _0115_
*136 _0116_
*137 _0117_
*138 _0118_
*139 _0119_
*140 _0120_
*141 _0121_
*142 _0122_
*143 _0123_
*144 _0124_
*145 _0125_
*146 _0126_
*147 _0127_
*148 _0128_
*149 _0129_
*150 _0130_
*151 _0131_
*152 _0132_
*153 _0133_
*154 _0134_
*155 _0135_
*156 _0136_
*157 _0137_
*158 _0138_
*159 _0139_
*160 _0140_
*161 _0141_
*162 _0142_
*163 _0143_
*164 _0144_
*165 _0145_
*166 _0146_
*167 _0147_
*168 _0148_
*169 _0149_
*170 _0150_
*171 _0151_
*172 _0152_
*173 _0153_
*174 _0154_
*175 _0155_
*176 _0156_
*177 _0157_
*178 _0158_
*179 _0159_
*180 _0160_
*181 _0161_
*182 _0162_
*183 _0163_
*184 _0164_
*185 _0165_
*186 _0166_
*187 _0167_
*188 _0168_
*189 _0169_
*190 _0170_
*191 _0171_
*192 _0172_
*193 _0173_
*194 _0174_
*195 _0175_
*196 _0176_
*197 _0177_
*198 _0178_
*199 _0179_
*200 _0180_
*201 _0181_
*202 _0182_
*203 _0183_
*204 _0184_
*205 _0185_
*206 _0186_
*207 _0187_
*208 _0188_
*209 _0189_
*210 _0190_
*211 _0191_
*212 _0192_
*213 _0193_
*214 _0194_
*215 _0195_
*216 _0196_
*218 _0198_
*219 _0199_
*220 _0200_
*222 _0202_
*225 _0205_
*227 _0207_
*228 _0208_
*229 _0209_
*231 _0211_
*232 _0212_
*233 _0213_
*234 _0214_
*235 _0215_
*236 _0216_
*237 _0217_
*238 _0218_
*239 _0219_
*240 _0220_
*241 _0221_
*242 _0222_
*243 _0223_
*244 _0224_
*245 _0225_
*246 _0226_
*247 _0227_
*249 _0229_
*250 _0230_
*254 _0234_
*255 _0235_
*257 clknet_4_15_0_PCLK
*258 clknet_4_14_0_PCLK
*259 _0239_
*260 _0240_
*261 _0241_
*262 _0242_
*263 _0243_
*264 _0244_
*265 _0245_
*266 _0246_
*267 _0247_
*268 _0248_
*269 _0249_
*270 _0250_
*271 _0251_
*272 _0252_
*273 _0253_
*274 _0254_
*275 _0255_
*276 _0256_
*277 _0257_
*278 _0258_
*279 _0259_
*280 _0260_
*281 _0261_
*282 clknet_4_13_0_PCLK
*283 _0263_
*284 _0264_
*285 _0265_
*286 _0266_
*287 _0267_
*288 _0268_
*289 _0269_
*290 clknet_4_12_0_PCLK
*291 _0271_
*292 _0272_
*293 _0273_
*294 _0274_
*295 _0275_
*296 _0276_
*297 _0277_
*298 _0278_
*299 _0279_
*300 _0280_
*301 clknet_4_11_0_PCLK
*302 clknet_4_10_0_PCLK
*303 clknet_4_9_0_PCLK
*304 _0284_
*305 clknet_4_8_0_PCLK
*306 clknet_4_7_0_PCLK
*307 clknet_4_6_0_PCLK
*308 clknet_4_5_0_PCLK
*309 _0289_
*310 _0290_
*311 clknet_4_4_0_PCLK
*312 _0292_
*313 _0293_
*314 _0294_
*315 _0295_
*316 clknet_4_3_0_PCLK
*317 clknet_4_2_0_PCLK
*318 net50
*319 net49
*320 clknet_4_1_0_PCLK
*321 clknet_4_0_0_PCLK
*322 _0302_
*323 _0303_
*324 _0304_
*325 _0305_
*326 _0306_
*327 _0307_
*328 _0308_
*329 _0309_
*330 _0310_
*331 _0311_
*332 _0312_
*333 _0313_
*334 _0314_
*335 _0315_
*336 _0316_
*337 _0317_
*338 _0318_
*339 clknet_0_PCLK
*340 net47
*341 net46
*342 _0322_
*343 _0323_
*344 net45
*345 _0325_
*346 net42
*347 net41
*348 net48
*349 net44
*350 _0330_
*351 _0331_
*352 _0332_
*353 _0333_
*354 _0334_
*355 _0335_
*356 _0336_
*357 _0337_
*358 _0338_
*359 _0339_
*360 _0340_
*361 _0341_
*362 _0342_
*363 net43
*364 _0344_
*365 _0345_
*366 tx_fifo_full
*367 tx_fifo_empty
*368 tx_fifo_count[4]
*369 tx_fifo_count[3]
*370 tx_fifo_count[2]
*371 tx_fifo_count[1]
*372 _0352_
*373 _0353_
*374 _0354_
*375 tx_fifo_count[0]
*376 _0356_
*377 _0357_
*378 _0358_
*379 _0359_
*380 _0360_
*381 _0361_
*382 _0362_
*383 _0363_
*384 _0364_
*385 _0365_
*386 busy
*387 TXD
*388 _0368_
*389 tx_fifo_push
*390 enable
*391 PWDATA[7]
*392 _0372_
*393 _0373_
*394 PWDATA[6]
*395 PWDATA[5]
*396 PWDATA[4]
*397 _0377_
*398 PWDATA[3]
*399 _0379_
*400 PWDATA[2]
*401 PWDATA[1]
*402 _0382_
*403 PWDATA[0]
*404 _0384_
*405 _0385_
*406 _0386_
*407 _0387_
*408 PRESETn
*409 _0389_
*410 LCR[5]
*411 _0391_
*412 _0392_
*413 LCR[4]
*414 _0394_
*415 _0395_
*416 _0396_
*417 _0397_
*418 _0398_
*419 _0399_
*420 _0400_
*421 _0401_
*422 _0402_
*423 _0403_
*424 _0404_
*425 _0405_
*426 _0406_
*427 _0407_
*428 _0408_
*429 LCR[3]
*430 _0410_
*431 _0411_
*432 _0412_
*433 _0413_
*434 _0414_
*435 _0415_
*436 _0416_
*437 _0417_
*438 _0418_
*439 _0419_
*440 _0420_
*441 _0421_
*442 _0422_
*443 _0423_
*444 _0424_
*445 _0425_
*446 _0426_
*447 _0427_
*448 _0428_
*449 _0429_
*450 _0430_
*451 _0431_
*452 LCR[2]
*453 _0433_
*454 _0434_
*455 _0435_
*456 _0436_
*457 _0437_
*458 _0438_
*459 _0439_
*460 _0440_
*461 _0441_
*462 _0442_
*463 _0443_
*464 _0444_
*465 _0445_
*466 _0446_
*467 _0447_
*468 _0448_
*469 _0449_
*470 _0450_
*471 _0451_
*472 _0452_
*473 _0453_
*474 _0454_
*475 _0455_
*476 _0456_
*477 _0457_
*478 _0458_
*479 _0459_
*480 _0460_
*481 _0461_
*482 _0462_
*483 _0463_
*484 _0464_
*485 _0465_
*486 _0466_
*487 _0467_
*488 _0468_
*489 _0469_
*490 _0470_
*491 _0471_
*492 _0472_
*493 _0473_
*494 _0474_
*495 _0475_
*496 _0476_
*497 _0477_
*498 _0478_
*499 _0479_
*500 _0480_
*501 _0481_
*502 _0482_
*503 _0483_
*504 _0484_
*505 _0485_
*506 _0486_
*507 _0487_
*508 _0488_
*509 _0489_
*510 _0490_
*511 _0491_
*512 _0492_
*513 _0493_
*514 _0494_
*515 _0495_
*516 _0496_
*517 _0497_
*518 _0498_
*519 _0499_
*520 _0500_
*521 _0501_
*522 _0502_
*523 _0503_
*524 _0504_
*525 _0505_
*526 _0506_
*527 _0507_
*528 _0508_
*529 _0509_
*530 _0510_
*531 _0511_
*532 _0512_
*533 _0513_
*534 _0514_
*535 _0515_
*536 _0516_
*537 _0517_
*538 _0518_
*539 _0519_
*540 _0520_
*541 _0521_
*542 _0522_
*543 _0523_
*544 _0524_
*545 _0525_
*546 _0526_
*547 _0527_
*548 _0528_
*549 _0529_
*550 _0530_
*551 _0531_
*552 _0532_
*553 _0533_
*554 _0534_
*555 _0535_
*556 _0536_
*557 _0537_
*558 _0538_
*559 _0539_
*560 _0540_
*561 _0541_
*562 _0542_
*563 _0543_
*564 _0544_
*565 _0545_
*566 _0546_
*567 _0547_
*568 _0548_
*569 _0549_
*570 _0550_
*571 _0551_
*572 _0552_
*573 _0553_
*574 _0554_
*575 _0555_
*576 _0556_
*577 _0557_
*578 _0558_
*579 LCR[1]
*580 LCR[0]
*581 _0561_
*582 _0562_
*583 _0563_
*584 _0564_
*585 _0565_
*586 _0566_
*587 _0567_
*588 _0568_
*589 _0569_
*590 _0570_
*591 _0571_
*592 _0572_
*593 _0573_
*594 _0574_
*595 _0575_
*596 _0576_
*597 _0577_
*598 _0578_
*599 _0579_
*600 _0580_
*601 _0581_
*602 _0582_
*603 _0583_
*604 _0584_
*605 _0585_
*606 _0586_
*607 _0587_
*608 _0588_
*609 _0589_
*610 _0590_
*611 _0591_
*612 _0592_
*613 _0593_
*614 _0594_
*615 _0595_
*616 _0596_
*617 _0597_
*618 _0598_
*619 _0599_
*620 _0600_
*621 _0601_
*622 _0602_
*623 _0603_
*624 _0604_
*625 _0605_
*626 _0606_
*627 _0607_
*628 _0608_
*629 _0609_
*630 _0610_
*631 _0611_
*632 _0612_
*633 _0613_
*634 _0614_
*635 _0615_
*636 _0616_
*637 _0617_
*638 _0618_
*639 _0619_
*640 _0620_
*641 _0621_
*642 _0622_
*643 _0623_
*644 _0624_
*645 _0625_
*646 _0626_
*647 _0627_
*648 _0628_
*649 _0629_
*650 _0630_
*651 _0631_
*652 _0632_
*653 _0633_
*654 _0634_
*655 _0635_
*656 _0636_
*657 _0637_
*658 _0638_
*659 _0639_
*660 _0640_
*661 _0641_
*662 _0642_
*663 _0643_
*664 _0644_
*665 _0645_
*666 _0646_
*667 _0647_
*668 _0648_
*669 _0649_
*670 _0650_
*671 _0651_
*672 _0652_
*673 _0653_
*674 _0654_
*675 _0655_
*676 _0656_
*677 _0657_
*678 _0658_
*679 _0659_
*680 _0660_
*681 _0661_
*682 _0662_
*683 _0663_
*684 _0664_
*685 _0665_
*686 _0666_
*687 _0667_
*688 _0668_
*689 _0669_
*690 _0670_
*691 _0671_
*692 _0672_
*693 _0673_
*694 _0674_
*695 _0675_
*696 _0676_
*697 _0677_
*698 _0678_
*699 _0679_
*700 _0680_
*701 _0681_
*702 _0682_
*703 _0683_
*704 _0684_
*705 _0685_
*706 _0686_
*707 _0687_
*708 _0688_
*709 _0689_
*710 _0690_
*711 _0691_
*712 _0692_
*713 _0693_
*714 _0694_
*715 _0695_
*716 _0696_
*717 _0697_
*718 _0698_
*719 _0699_
*720 _0700_
*721 _0701_
*722 _0702_
*723 _0703_
*724 _0704_
*725 _0705_
*726 _0706_
*727 _0707_
*728 _0708_
*729 _0709_
*730 _0710_
*731 _0711_
*732 _0712_
*733 _0713_
*734 _0714_
*735 _0715_
*736 _0716_
*737 _0717_
*738 _0718_
*739 _0719_
*740 _0720_
*741 _0721_
*742 _0722_
*743 _0723_
*744 _0724_
*745 _0725_
*746 _0726_
*747 _0727_
*748 _0728_
*749 _0729_
*750 _0730_
*751 _0731_
*752 _0732_
*753 _0733_
*754 _0734_
*755 _0735_
*756 _0736_
*757 _0737_
*758 _0738_
*759 _0739_
*760 _0740_
*761 _0741_
*762 _0742_
*763 _0743_
*764 _0744_
*765 _0745_
*766 _0746_
*767 _0747_
*768 _0748_
*769 _0749_
*770 _0750_
*771 _0751_
*772 _0752_
*773 _0753_
*774 _0754_
*775 _0755_
*776 _0756_
*777 _0757_
*778 _0758_
*779 _0759_
*780 _0760_
*781 _0761_
*782 _0762_
*783 _0763_
*784 _0764_
*785 _0765_
*786 _0766_
*787 _0767_
*788 _0768_
*789 _0769_
*790 _0770_
*791 _0771_
*792 _0772_
*793 _0773_
*794 _0774_
*795 bit_counter\[0\]
*796 bit_counter\[1\]
*797 bit_counter\[2\]
*798 bit_counter\[3\]
*799 net19
*800 net16
*801 half_stop_flag
*802 lcr_latched\[0\]
*803 lcr_latched\[1\]
*804 lcr_latched\[2\]
*805 lcr_latched\[3\]
*806 lcr_latched\[4\]
*807 lcr_latched\[5\]
*808 pop_tx_fifo
*809 tx_buffer\[0\]
*810 tx_buffer\[1\]
*811 tx_buffer\[2\]
*812 tx_buffer\[3\]
*813 tx_buffer\[4\]
*814 tx_buffer\[5\]
*815 tx_buffer\[6\]
*816 tx_buffer\[7\]
*817 net20
*818 net21
*819 net22
*820 net23
*821 net24
*822 net25
*823 net26
*824 net17
*825 tx_state\[0\]
*826 tx_state\[10\]
*827 tx_state\[11\]
*828 tx_state\[12\]
*829 tx_state\[1\]
*830 tx_state\[2\]
*831 tx_state\[3\]
*832 tx_state\[4\]
*833 tx_state\[5\]
*834 tx_state\[6\]
*835 tx_state\[7\]
*836 tx_state\[8\]
*837 tx_state\[9\]
*838 u_fifo\.data_fifo\[0\]\[0\]
*839 u_fifo\.data_fifo\[0\]\[1\]
*840 u_fifo\.data_fifo\[0\]\[2\]
*841 u_fifo\.data_fifo\[0\]\[3\]
*842 u_fifo\.data_fifo\[0\]\[4\]
*843 u_fifo\.data_fifo\[0\]\[5\]
*844 u_fifo\.data_fifo\[0\]\[6\]
*845 u_fifo\.data_fifo\[0\]\[7\]
*846 u_fifo\.data_fifo\[10\]\[0\]
*847 u_fifo\.data_fifo\[10\]\[1\]
*848 u_fifo\.data_fifo\[10\]\[2\]
*849 u_fifo\.data_fifo\[10\]\[3\]
*850 u_fifo\.data_fifo\[10\]\[4\]
*851 u_fifo\.data_fifo\[10\]\[5\]
*852 u_fifo\.data_fifo\[10\]\[6\]
*853 u_fifo\.data_fifo\[10\]\[7\]
*854 u_fifo\.data_fifo\[11\]\[0\]
*855 u_fifo\.data_fifo\[11\]\[1\]
*856 u_fifo\.data_fifo\[11\]\[2\]
*857 u_fifo\.data_fifo\[11\]\[3\]
*858 u_fifo\.data_fifo\[11\]\[4\]
*859 u_fifo\.data_fifo\[11\]\[5\]
*860 u_fifo\.data_fifo\[11\]\[6\]
*861 u_fifo\.data_fifo\[11\]\[7\]
*862 u_fifo\.data_fifo\[12\]\[0\]
*863 u_fifo\.data_fifo\[12\]\[1\]
*864 u_fifo\.data_fifo\[12\]\[2\]
*865 u_fifo\.data_fifo\[12\]\[3\]
*866 u_fifo\.data_fifo\[12\]\[4\]
*867 u_fifo\.data_fifo\[12\]\[5\]
*868 u_fifo\.data_fifo\[12\]\[6\]
*869 u_fifo\.data_fifo\[12\]\[7\]
*870 u_fifo\.data_fifo\[13\]\[0\]
*871 u_fifo\.data_fifo\[13\]\[1\]
*872 u_fifo\.data_fifo\[13\]\[2\]
*873 u_fifo\.data_fifo\[13\]\[3\]
*874 u_fifo\.data_fifo\[13\]\[4\]
*875 u_fifo\.data_fifo\[13\]\[5\]
*876 u_fifo\.data_fifo\[13\]\[6\]
*877 u_fifo\.data_fifo\[13\]\[7\]
*878 u_fifo\.data_fifo\[14\]\[0\]
*879 u_fifo\.data_fifo\[14\]\[1\]
*880 u_fifo\.data_fifo\[14\]\[2\]
*881 u_fifo\.data_fifo\[14\]\[3\]
*882 u_fifo\.data_fifo\[14\]\[4\]
*883 u_fifo\.data_fifo\[14\]\[5\]
*884 u_fifo\.data_fifo\[14\]\[6\]
*885 u_fifo\.data_fifo\[14\]\[7\]
*886 u_fifo\.data_fifo\[15\]\[0\]
*887 u_fifo\.data_fifo\[15\]\[1\]
*888 u_fifo\.data_fifo\[15\]\[2\]
*889 u_fifo\.data_fifo\[15\]\[3\]
*890 u_fifo\.data_fifo\[15\]\[4\]
*891 u_fifo\.data_fifo\[15\]\[5\]
*892 u_fifo\.data_fifo\[15\]\[6\]
*893 u_fifo\.data_fifo\[15\]\[7\]
*894 u_fifo\.data_fifo\[1\]\[0\]
*895 u_fifo\.data_fifo\[1\]\[1\]
*896 u_fifo\.data_fifo\[1\]\[2\]
*897 u_fifo\.data_fifo\[1\]\[3\]
*898 u_fifo\.data_fifo\[1\]\[4\]
*899 u_fifo\.data_fifo\[1\]\[5\]
*900 u_fifo\.data_fifo\[1\]\[6\]
*901 u_fifo\.data_fifo\[1\]\[7\]
*902 u_fifo\.data_fifo\[2\]\[0\]
*903 u_fifo\.data_fifo\[2\]\[1\]
*904 u_fifo\.data_fifo\[2\]\[2\]
*905 u_fifo\.data_fifo\[2\]\[3\]
*906 u_fifo\.data_fifo\[2\]\[4\]
*907 u_fifo\.data_fifo\[2\]\[5\]
*908 u_fifo\.data_fifo\[2\]\[6\]
*909 u_fifo\.data_fifo\[2\]\[7\]
*910 u_fifo\.data_fifo\[3\]\[0\]
*911 u_fifo\.data_fifo\[3\]\[1\]
*912 u_fifo\.data_fifo\[3\]\[2\]
*913 u_fifo\.data_fifo\[3\]\[3\]
*914 u_fifo\.data_fifo\[3\]\[4\]
*915 u_fifo\.data_fifo\[3\]\[5\]
*916 u_fifo\.data_fifo\[3\]\[6\]
*917 u_fifo\.data_fifo\[3\]\[7\]
*918 u_fifo\.data_fifo\[4\]\[0\]
*919 u_fifo\.data_fifo\[4\]\[1\]
*920 u_fifo\.data_fifo\[4\]\[2\]
*921 u_fifo\.data_fifo\[4\]\[3\]
*922 u_fifo\.data_fifo\[4\]\[4\]
*923 u_fifo\.data_fifo\[4\]\[5\]
*924 u_fifo\.data_fifo\[4\]\[6\]
*925 u_fifo\.data_fifo\[4\]\[7\]
*926 u_fifo\.data_fifo\[5\]\[0\]
*927 u_fifo\.data_fifo\[5\]\[1\]
*928 u_fifo\.data_fifo\[5\]\[2\]
*929 u_fifo\.data_fifo\[5\]\[3\]
*930 u_fifo\.data_fifo\[5\]\[4\]
*931 u_fifo\.data_fifo\[5\]\[5\]
*932 u_fifo\.data_fifo\[5\]\[6\]
*933 u_fifo\.data_fifo\[5\]\[7\]
*934 u_fifo\.data_fifo\[6\]\[0\]
*935 u_fifo\.data_fifo\[6\]\[1\]
*936 u_fifo\.data_fifo\[6\]\[2\]
*937 u_fifo\.data_fifo\[6\]\[3\]
*938 u_fifo\.data_fifo\[6\]\[4\]
*939 u_fifo\.data_fifo\[6\]\[5\]
*940 u_fifo\.data_fifo\[6\]\[6\]
*941 u_fifo\.data_fifo\[6\]\[7\]
*942 u_fifo\.data_fifo\[7\]\[0\]
*943 u_fifo\.data_fifo\[7\]\[1\]
*944 u_fifo\.data_fifo\[7\]\[2\]
*945 u_fifo\.data_fifo\[7\]\[3\]
*946 u_fifo\.data_fifo\[7\]\[4\]
*947 u_fifo\.data_fifo\[7\]\[5\]
*948 u_fifo\.data_fifo\[7\]\[6\]
*949 u_fifo\.data_fifo\[7\]\[7\]
*950 u_fifo\.data_fifo\[8\]\[0\]
*951 u_fifo\.data_fifo\[8\]\[1\]
*952 u_fifo\.data_fifo\[8\]\[2\]
*953 u_fifo\.data_fifo\[8\]\[3\]
*954 u_fifo\.data_fifo\[8\]\[4\]
*955 u_fifo\.data_fifo\[8\]\[5\]
*956 u_fifo\.data_fifo\[8\]\[6\]
*957 u_fifo\.data_fifo\[8\]\[7\]
*958 u_fifo\.data_fifo\[9\]\[0\]
*959 u_fifo\.data_fifo\[9\]\[1\]
*960 u_fifo\.data_fifo\[9\]\[2\]
*961 u_fifo\.data_fifo\[9\]\[3\]
*962 u_fifo\.data_fifo\[9\]\[4\]
*963 u_fifo\.data_fifo\[9\]\[5\]
*964 u_fifo\.data_fifo\[9\]\[6\]
*965 u_fifo\.data_fifo\[9\]\[7\]
*966 u_fifo\.ip_count\[0\]
*967 u_fifo\.ip_count\[1\]
*968 u_fifo\.ip_count\[2\]
*969 u_fifo\.ip_count\[3\]
*970 u_fifo\.op_count\[0\]
*971 u_fifo\.op_count\[1\]
*972 u_fifo\.op_count\[2\]
*973 u_fifo\.op_count\[3\]
*974 TXD\$_DFF_PN1_
*975 _0775_
*976 clkload11
*977 _0777_
*978 _0778_
*979 _0779_
*980 _0780_
*981 _0781_
*982 clkload10
*983 _0783_
*984 clkload9
*985 clkload8
*986 _0786_
*987 clkload7
*988 _0788_
*989 _0789_
*990 _0790_
*991 clkload6
*992 _0792_
*993 _0793_
*994 _0794_
*995 _0795_
*996 _0796_
*997 _0797_
*998 _0798_
*999 _0799_
*1000 _0800_
*1001 _0801_
*1002 _0802_
*1003 _0803_
*1004 _0804_
*1005 _0805_
*1006 _0806_
*1007 _0807_
*1008 _0808_
*1009 _0809_
*1010 clkload5
*1011 _0811_
*1012 _0812_
*1013 clkload4
*1014 clkload3
*1015 clkload2
*1016 clkload1
*1017 _0817_
*1018 _0818_
*1019 clkload0
*1020 clkbuf_4_15_0_PCLK
*1021 clkbuf_4_14_0_PCLK
*1022 _0822_
*1023 _0823_
*1024 _0824_
*1025 _0825_
*1026 _0826_
*1027 _0827_
*1028 _0828_
*1029 _0829_
*1030 _0830_
*1031 _0831_
*1032 _0832_
*1033 _0833_
*1034 _0834_
*1035 _0835_
*1036 _0836_
*1037 _0837_
*1038 _0838_
*1039 _0839_
*1040 _0840_
*1041 _0841_
*1042 _0842_
*1043 _0843_
*1044 _0844_
*1045 _0845_
*1046 _0846_
*1047 _0847_
*1048 _0848_
*1049 _0849_
*1050 _0850_
*1051 _0851_
*1052 _0852_
*1053 _0853_
*1054 clkbuf_4_13_0_PCLK
*1055 _0855_
*1056 _0856_
*1057 _0857_
*1058 _0858_
*1059 _0859_
*1060 _0860_
*1061 _0861_
*1062 clkbuf_4_12_0_PCLK
*1063 _0863_
*1064 _0864_
*1065 _0865_
*1066 _0866_
*1067 _0867_
*1068 _0868_
*1069 _0869_
*1070 _0870_
*1071 _0871_
*1072 _0872_
*1073 _0873_
*1074 _0874_
*1075 _0875_
*1076 _0876_
*1077 clkbuf_4_11_0_PCLK
*1078 clkbuf_4_10_0_PCLK
*1079 clkbuf_4_9_0_PCLK
*1080 _0880_
*1081 clkbuf_4_8_0_PCLK
*1082 clkbuf_4_7_0_PCLK
*1083 clkbuf_4_6_0_PCLK
*1084 clkbuf_4_5_0_PCLK
*1085 _0885_
*1086 _0886_
*1087 clkbuf_4_4_0_PCLK
*1088 _0888_
*1089 _0889_
*1090 _0890_
*1091 _0891_
*1092 _0892_
*1093 clkbuf_4_3_0_PCLK
*1094 clkbuf_4_2_0_PCLK
*1095 _0895_
*1096 place50
*1097 place49
*1098 _0898_
*1099 clkbuf_4_1_0_PCLK
*1100 clkbuf_4_0_0_PCLK
*1101 _0901_
*1102 _0902_
*1103 _0903_
*1104 _0904_
*1105 _0905_
*1106 _0906_
*1107 _0907_
*1108 _0908_
*1109 _0909_
*1110 _0910_
*1111 _0911_
*1112 _0912_
*1113 _0913_
*1114 _0914_
*1115 _0915_
*1116 _0916_
*1117 _0917_
*1118 _0918_
*1119 _0919_
*1120 clkbuf_0_PCLK
*1121 place47
*1122 place46
*1123 _0923_
*1124 _0924_
*1125 place45
*1126 _0926_
*1127 _0927_
*1128 place42
*1129 place41
*1130 _0930_
*1131 place48
*1132 place44
*1133 _0933_
*1134 _0934_
*1135 _0935_
*1136 _0936_
*1137 _0937_
*1138 _0938_
*1139 _0939_
*1140 _0940_
*1141 _0941_
*1142 _0942_
*1143 _0943_
*1144 _0944_
*1145 _0945_
*1146 _0946_
*1147 _0947_
*1148 _0948_
*1149 _0949_
*1150 _0950_
*1151 _0951_
*1152 _0952_
*1153 _0953_
*1154 _0954_
*1155 _0955_
*1156 _0956_
*1157 _0957_
*1158 _0958_
*1159 _0959_
*1160 _0960_
*1161 _0961_
*1162 _0962_
*1163 _0963_
*1164 _0964_
*1165 _0965_
*1166 _0966_
*1167 place43
*1168 _0968_
*1169 _0969_
*1170 _0970_
*1171 _0971_
*1172 _0972_
*1173 _0973_
*1174 _0974_
*1175 _0975_
*1176 _0976_
*1177 _0977_
*1178 _0978_
*1179 _0979_
*1180 _0980_
*1181 _0981_
*1182 _0982_
*1183 _0983_
*1184 output26
*1185 output25
*1186 output24
*1187 output23
*1188 output22
*1189 output21
*1190 _0990_
*1191 _0991_
*1192 _0992_
*1193 _0993_
*1194 output20
*1195 _0995_
*1196 _0996_
*1197 _0997_
*1198 _0998_
*1199 _0999_
*1200 _1000_
*1201 _1001_
*1202 _1002_
*1203 _1003_
*1204 _1004_
*1205 _1005_
*1206 _1006_
*1207 _1007_
*1208 _1008_
*1209 _1009_
*1210 _1010_
*1211 _1011_
*1212 _1012_
*1213 _1013_
*1214 _1014_
*1215 _1015_
*1216 _1016_
*1217 _1017_
*1218 _1018_
*1219 _1019_
*1220 _1020_
*1221 _1021_
*1222 _1022_
*1223 _1023_
*1224 _1024_
*1225 _1025_
*1226 _1026_
*1227 _1027_
*1228 _1028_
*1229 _1029_
*1230 _1030_
*1231 _1031_
*1232 _1032_
*1233 _1033_
*1234 _1034_
*1235 _1035_
*1236 _1036_
*1237 output19
*1238 output18
*1239 _1039_
*1240 input17
*1241 input16
*1242 input15
*1243 _1043_
*1244 _1044_
*1245 input14
*1246 input13
*1247 input12
*1248 _1048_
*1249 input11
*1250 _1050_
*1251 input10
*1252 input9
*1253 _1053_
*1254 input8
*1255 _1055_
*1256 _1056_
*1257 _1057_
*1258 _1058_
*1259 input7
*1260 _1060_
*1261 input6
*1262 _1062_
*1263 _1063_
*1264 input5
*1265 _1065_
*1266 _1066_
*1267 _1067_
*1268 _1068_
*1269 _1069_
*1270 _1070_
*1271 _1071_
*1272 _1072_
*1273 _1073_
*1274 _1074_
*1275 _1075_
*1276 _1076_
*1277 _1077_
*1278 _1078_
*1279 _1079_
*1280 _1080_
*1281 input4
*1282 _1082_
*1283 _1083_
*1284 _1084_
*1285 _1085_
*1286 _1086_
*1287 _1087_
*1288 _1088_
*1289 _1089_
*1290 _1090_
*1291 _1091_
*1292 _1092_
*1293 _1093_
*1294 _1094_
*1295 _1095_
*1296 _1096_
*1297 _1097_
*1298 _1098_
*1299 _1099_
*1300 _1100_
*1301 _1101_
*1302 _1102_
*1303 _1103_
*1304 _1104_
*1305 input3
*1306 _1106_
*1307 _1107_
*1308 _1108_
*1309 _1109_
*1310 _1110_
*1311 _1111_
*1312 _1112_
*1313 _1113_
*1314 _1114_
*1315 _1115_
*1316 _1116_
*1317 _1117_
*1318 _1118_
*1319 _1119_
*1320 _1120_
*1321 _1121_
*1322 _1122_
*1323 _1123_
*1324 _1124_
*1325 _1125_
*1326 _1126_
*1327 _1127_
*1328 _1128_
*1329 _1129_
*1330 _1130_
*1331 _1131_
*1332 _1132_
*1333 _1133_
*1334 _1134_
*1335 _1135_
*1336 _1136_
*1337 _1137_
*1338 _1138_
*1339 _1139_
*1340 _1140_
*1341 _1141_
*1342 _1142_
*1343 _1143_
*1344 _1144_
*1345 _1145_
*1346 _1146_
*1347 _1147_
*1348 _1148_
*1349 _1149_
*1350 _1150_
*1351 _1151_
*1352 _1152_
*1353 _1153_
*1354 _1154_
*1355 _1155_
*1356 _1156_
*1357 _1157_
*1358 _1158_
*1359 _1159_
*1360 _1160_
*1361 _1161_
*1362 _1162_
*1363 _1163_
*1364 _1164_
*1365 _1165_
*1366 _1166_
*1367 _1167_
*1368 _1168_
*1369 _1169_
*1370 _1170_
*1371 _1171_
*1372 _1172_
*1373 _1173_
*1374 _1174_
*1375 _1175_
*1376 _1176_
*1377 _1177_
*1378 _1178_
*1379 _1179_
*1380 _1180_
*1381 _1181_
*1382 _1182_
*1383 _1183_
*1384 _1184_
*1385 _1185_
*1386 _1186_
*1387 _1187_
*1388 _1188_
*1389 _1189_
*1390 _1190_
*1391 _1191_
*1392 _1192_
*1393 _1193_
*1394 _1194_
*1395 _1195_
*1396 _1196_
*1397 _1197_
*1398 _1198_
*1399 _1199_
*1400 _1200_
*1401 _1201_
*1402 _1202_
*1403 _1203_
*1404 _1204_
*1405 _1205_
*1406 _1206_
*1407 _1207_
*1408 _1208_
*1409 _1209_
*1410 _1210_
*1411 _1211_
*1412 _1212_
*1413 _1213_
*1414 _1214_
*1415 _1215_
*1416 _1216_
*1417 _1217_
*1418 _1218_
*1419 _1219_
*1420 _1220_
*1421 _1221_
*1422 _1222_
*1423 _1223_
*1424 _1224_
*1425 _1225_
*1426 _1226_
*1427 _1227_
*1428 _1228_
*1429 _1229_
*1430 _1230_
*1431 _1231_
*1432 _1232_
*1433 _1233_
*1434 _1234_
*1435 _1235_
*1436 _1236_
*1437 _1237_
*1438 _1238_
*1439 _1239_
*1440 _1240_
*1441 _1241_
*1442 _1242_
*1443 _1243_
*1444 _1244_
*1445 _1245_
*1446 _1246_
*1447 _1247_
*1448 _1248_
*1449 _1249_
*1450 _1250_
*1451 _1251_
*1452 _1252_
*1453 _1253_
*1454 _1254_
*1455 _1255_
*1456 _1256_
*1457 _1257_
*1458 _1258_
*1459 _1259_
*1460 _1260_
*1461 _1261_
*1462 _1262_
*1463 _1263_
*1464 _1264_
*1465 _1265_
*1466 _1266_
*1467 _1267_
*1468 input2
*1469 input1
*1470 _1270_
*1471 _1271_
*1472 _1272_
*1473 _1273_
*1474 _1274_
*1475 _1275_
*1476 _1276_
*1477 _1277_
*1478 _1278_
*1479 _1279_
*1480 _1280_
*1481 _1281_
*1482 _1282_
*1483 _1283_
*1484 _1284_
*1485 _1285_
*1486 _1286_
*1487 _1287_
*1488 _1288_
*1489 _1289_
*1490 _1290_
*1491 _1291_
*1492 _1292_
*1493 _1293_
*1494 _1294_
*1495 _1295_
*1496 _1296_
*1497 _1297_
*1498 _1298_
*1499 _1299_
*1500 _1300_
*1501 _1301_
*1502 _1302_
*1503 _1303_
*1504 _1304_
*1505 _1305_
*1506 _1306_
*1507 _1307_
*1508 _1308_
*1509 _1309_
*1510 _1310_
*1511 _1311_
*1512 _1312_
*1513 _1313_
*1514 _1314_
*1515 _1315_
*1516 _1316_
*1517 _1317_
*1518 _1318_
*1519 _1319_
*1520 _1320_
*1521 _1321_
*1522 _1322_
*1523 _1323_
*1524 _1324_
*1525 _1325_
*1526 _1326_
*1527 _1327_
*1528 _1328_
*1529 _1329_
*1530 _1330_
*1531 _1331_
*1532 _1332_
*1533 _1333_
*1534 _1334_
*1535 _1335_
*1536 _1336_
*1537 _1337_
*1538 _1338_
*1539 _1339_
*1540 _1340_
*1541 _1341_
*1542 _1342_
*1543 _1343_
*1544 _1344_
*1545 _1345_
*1546 _1346_
*1547 _1347_
*1548 _1348_
*1549 _1349_
*1550 _1350_
*1551 _1351_
*1552 _1352_
*1553 _1353_
*1554 _1354_
*1555 _1355_
*1556 _1356_
*1557 _1357_
*1558 _1358_
*1559 _1359_
*1560 _1360_
*1561 _1361_
*1562 _1362_
*1563 _1363_
*1564 bit_counter\[0\]\$_DFFE_PN0P_
*1565 bit_counter\[1\]\$_DFFE_PN0P_
*1566 bit_counter\[2\]\$_DFFE_PN0P_
*1567 bit_counter\[3\]\$_DFFE_PN0P_
*1568 busy\$_DFFE_PN0N_
*1569 half_stop_flag\$_DFFE_PN0P_
*1570 lcr_latched\[0\]\$_DFFE_PN0P_
*1571 lcr_latched\[1\]\$_DFFE_PN0P_
*1572 lcr_latched\[2\]\$_DFFE_PN0P_
*1573 lcr_latched\[3\]\$_DFFE_PN0P_
*1574 lcr_latched\[4\]\$_DFFE_PN0P_
*1575 lcr_latched\[5\]\$_DFFE_PN0P_
*1576 pop_tx_fifo\$_DFF_PN0_
*1577 tx_buffer\[0\]\$_DFFE_PN0P_
*1578 tx_buffer\[1\]\$_DFFE_PN0P_
*1579 tx_buffer\[2\]\$_DFFE_PN0P_
*1580 tx_buffer\[3\]\$_DFFE_PN0P_
*1581 tx_buffer\[4\]\$_DFFE_PN0P_
*1582 tx_buffer\[5\]\$_DFFE_PN0P_
*1583 tx_buffer\[6\]\$_DFFE_PN0P_
*1584 tx_buffer\[7\]\$_DFFE_PN0P_
*1585 tx_state\[0\]\$_DFF_PN1_
*1586 tx_state\[10\]\$_DFF_PN0_
*1587 tx_state\[11\]\$_DFF_PN0_
*1588 tx_state\[12\]\$_DFF_PN0_
*1589 tx_state\[1\]\$_DFF_PN0_
*1590 tx_state\[2\]\$_DFF_PN0_
*1591 tx_state\[3\]\$_DFF_PN0_
*1592 tx_state\[4\]\$_DFF_PN0_
*1593 tx_state\[5\]\$_DFF_PN0_
*1594 tx_state\[6\]\$_DFF_PN0_
*1595 tx_state\[7\]\$_DFF_PN0_
*1596 tx_state\[8\]\$_DFF_PN0_
*1597 tx_state\[9\]\$_DFF_PN0_
*1598 u_fifo\.count\[0\]\$_DFFE_PN0P_
*1599 u_fifo\.count\[1\]\$_DFFE_PN0P_
*1600 u_fifo\.count\[2\]\$_DFFE_PN0P_
*1601 u_fifo\.count\[3\]\$_DFFE_PN0P_
*1602 u_fifo\.count\[4\]\$_DFFE_PN0P_
*1603 u_fifo\.data_fifo\[0\]\[0\]\$_DFFE_PN0P_
*1604 u_fifo\.data_fifo\[0\]\[1\]\$_DFFE_PN0P_
*1605 u_fifo\.data_fifo\[0\]\[2\]\$_DFFE_PN0P_
*1606 u_fifo\.data_fifo\[0\]\[3\]\$_DFFE_PN0P_
*1607 u_fifo\.data_fifo\[0\]\[4\]\$_DFFE_PN0P_
*1608 u_fifo\.data_fifo\[0\]\[5\]\$_DFFE_PN0P_
*1609 u_fifo\.data_fifo\[0\]\[6\]\$_DFFE_PN0P_
*1610 u_fifo\.data_fifo\[0\]\[7\]\$_DFFE_PN0P_
*1611 u_fifo\.data_fifo\[10\]\[0\]\$_DFFE_PN0P_
*1612 u_fifo\.data_fifo\[10\]\[1\]\$_DFFE_PN0P_
*1613 u_fifo\.data_fifo\[10\]\[2\]\$_DFFE_PN0P_
*1614 u_fifo\.data_fifo\[10\]\[3\]\$_DFFE_PN0P_
*1615 u_fifo\.data_fifo\[10\]\[4\]\$_DFFE_PN0P_
*1616 u_fifo\.data_fifo\[10\]\[5\]\$_DFFE_PN0P_
*1617 u_fifo\.data_fifo\[10\]\[6\]\$_DFFE_PN0P_
*1618 u_fifo\.data_fifo\[10\]\[7\]\$_DFFE_PN0P_
*1619 u_fifo\.data_fifo\[11\]\[0\]\$_DFFE_PN0P_
*1620 u_fifo\.data_fifo\[11\]\[1\]\$_DFFE_PN0P_
*1621 u_fifo\.data_fifo\[11\]\[2\]\$_DFFE_PN0P_
*1622 u_fifo\.data_fifo\[11\]\[3\]\$_DFFE_PN0P_
*1623 u_fifo\.data_fifo\[11\]\[4\]\$_DFFE_PN0P_
*1624 u_fifo\.data_fifo\[11\]\[5\]\$_DFFE_PN0P_
*1625 u_fifo\.data_fifo\[11\]\[6\]\$_DFFE_PN0P_
*1626 u_fifo\.data_fifo\[11\]\[7\]\$_DFFE_PN0P_
*1627 u_fifo\.data_fifo\[12\]\[0\]\$_DFFE_PN0P_
*1628 u_fifo\.data_fifo\[12\]\[1\]\$_DFFE_PN0P_
*1629 u_fifo\.data_fifo\[12\]\[2\]\$_DFFE_PN0P_
*1630 u_fifo\.data_fifo\[12\]\[3\]\$_DFFE_PN0P_
*1631 u_fifo\.data_fifo\[12\]\[4\]\$_DFFE_PN0P_
*1632 u_fifo\.data_fifo\[12\]\[5\]\$_DFFE_PN0P_
*1633 u_fifo\.data_fifo\[12\]\[6\]\$_DFFE_PN0P_
*1634 u_fifo\.data_fifo\[12\]\[7\]\$_DFFE_PN0P_
*1635 u_fifo\.data_fifo\[13\]\[0\]\$_DFFE_PN0P_
*1636 u_fifo\.data_fifo\[13\]\[1\]\$_DFFE_PN0P_
*1637 u_fifo\.data_fifo\[13\]\[2\]\$_DFFE_PN0P_
*1638 u_fifo\.data_fifo\[13\]\[3\]\$_DFFE_PN0P_
*1639 u_fifo\.data_fifo\[13\]\[4\]\$_DFFE_PN0P_
*1640 u_fifo\.data_fifo\[13\]\[5\]\$_DFFE_PN0P_
*1641 u_fifo\.data_fifo\[13\]\[6\]\$_DFFE_PN0P_
*1642 u_fifo\.data_fifo\[13\]\[7\]\$_DFFE_PN0P_
*1643 u_fifo\.data_fifo\[14\]\[0\]\$_DFFE_PN0P_
*1644 u_fifo\.data_fifo\[14\]\[1\]\$_DFFE_PN0P_
*1645 u_fifo\.data_fifo\[14\]\[2\]\$_DFFE_PN0P_
*1646 u_fifo\.data_fifo\[14\]\[3\]\$_DFFE_PN0P_
*1647 u_fifo\.data_fifo\[14\]\[4\]\$_DFFE_PN0P_
*1648 u_fifo\.data_fifo\[14\]\[5\]\$_DFFE_PN0P_
*1649 u_fifo\.data_fifo\[14\]\[6\]\$_DFFE_PN0P_
*1650 u_fifo\.data_fifo\[14\]\[7\]\$_DFFE_PN0P_
*1651 u_fifo\.data_fifo\[15\]\[0\]\$_DFFE_PN0P_
*1652 u_fifo\.data_fifo\[15\]\[1\]\$_DFFE_PN0P_
*1653 u_fifo\.data_fifo\[15\]\[2\]\$_DFFE_PN0P_
*1654 u_fifo\.data_fifo\[15\]\[3\]\$_DFFE_PN0P_
*1655 u_fifo\.data_fifo\[15\]\[4\]\$_DFFE_PN0P_
*1656 u_fifo\.data_fifo\[15\]\[5\]\$_DFFE_PN0P_
*1657 u_fifo\.data_fifo\[15\]\[6\]\$_DFFE_PN0P_
*1658 u_fifo\.data_fifo\[15\]\[7\]\$_DFFE_PN0P_
*1659 u_fifo\.data_fifo\[1\]\[0\]\$_DFFE_PN0P_
*1660 u_fifo\.data_fifo\[1\]\[1\]\$_DFFE_PN0P_
*1661 u_fifo\.data_fifo\[1\]\[2\]\$_DFFE_PN0P_
*1662 u_fifo\.data_fifo\[1\]\[3\]\$_DFFE_PN0P_
*1663 u_fifo\.data_fifo\[1\]\[4\]\$_DFFE_PN0P_
*1664 u_fifo\.data_fifo\[1\]\[5\]\$_DFFE_PN0P_
*1665 u_fifo\.data_fifo\[1\]\[6\]\$_DFFE_PN0P_
*1666 u_fifo\.data_fifo\[1\]\[7\]\$_DFFE_PN0P_
*1667 u_fifo\.data_fifo\[2\]\[0\]\$_DFFE_PN0P_
*1668 u_fifo\.data_fifo\[2\]\[1\]\$_DFFE_PN0P_
*1669 u_fifo\.data_fifo\[2\]\[2\]\$_DFFE_PN0P_
*1670 u_fifo\.data_fifo\[2\]\[3\]\$_DFFE_PN0P_
*1671 u_fifo\.data_fifo\[2\]\[4\]\$_DFFE_PN0P_
*1672 u_fifo\.data_fifo\[2\]\[5\]\$_DFFE_PN0P_
*1673 u_fifo\.data_fifo\[2\]\[6\]\$_DFFE_PN0P_
*1674 u_fifo\.data_fifo\[2\]\[7\]\$_DFFE_PN0P_
*1675 u_fifo\.data_fifo\[3\]\[0\]\$_DFFE_PN0P_
*1676 u_fifo\.data_fifo\[3\]\[1\]\$_DFFE_PN0P_
*1677 u_fifo\.data_fifo\[3\]\[2\]\$_DFFE_PN0P_
*1678 u_fifo\.data_fifo\[3\]\[3\]\$_DFFE_PN0P_
*1679 u_fifo\.data_fifo\[3\]\[4\]\$_DFFE_PN0P_
*1680 u_fifo\.data_fifo\[3\]\[5\]\$_DFFE_PN0P_
*1681 u_fifo\.data_fifo\[3\]\[6\]\$_DFFE_PN0P_
*1682 u_fifo\.data_fifo\[3\]\[7\]\$_DFFE_PN0P_
*1683 u_fifo\.data_fifo\[4\]\[0\]\$_DFFE_PN0P_
*1684 u_fifo\.data_fifo\[4\]\[1\]\$_DFFE_PN0P_
*1685 u_fifo\.data_fifo\[4\]\[2\]\$_DFFE_PN0P_
*1686 u_fifo\.data_fifo\[4\]\[3\]\$_DFFE_PN0P_
*1687 u_fifo\.data_fifo\[4\]\[4\]\$_DFFE_PN0P_
*1688 u_fifo\.data_fifo\[4\]\[5\]\$_DFFE_PN0P_
*1689 u_fifo\.data_fifo\[4\]\[6\]\$_DFFE_PN0P_
*1690 u_fifo\.data_fifo\[4\]\[7\]\$_DFFE_PN0P_
*1691 u_fifo\.data_fifo\[5\]\[0\]\$_DFFE_PN0P_
*1692 u_fifo\.data_fifo\[5\]\[1\]\$_DFFE_PN0P_
*1693 u_fifo\.data_fifo\[5\]\[2\]\$_DFFE_PN0P_
*1694 u_fifo\.data_fifo\[5\]\[3\]\$_DFFE_PN0P_
*1695 u_fifo\.data_fifo\[5\]\[4\]\$_DFFE_PN0P_
*1696 u_fifo\.data_fifo\[5\]\[5\]\$_DFFE_PN0P_
*1697 u_fifo\.data_fifo\[5\]\[6\]\$_DFFE_PN0P_
*1698 u_fifo\.data_fifo\[5\]\[7\]\$_DFFE_PN0P_
*1699 u_fifo\.data_fifo\[6\]\[0\]\$_DFFE_PN0P_
*1700 u_fifo\.data_fifo\[6\]\[1\]\$_DFFE_PN0P_
*1701 u_fifo\.data_fifo\[6\]\[2\]\$_DFFE_PN0P_
*1702 u_fifo\.data_fifo\[6\]\[3\]\$_DFFE_PN0P_
*1703 u_fifo\.data_fifo\[6\]\[4\]\$_DFFE_PN0P_
*1704 u_fifo\.data_fifo\[6\]\[5\]\$_DFFE_PN0P_
*1705 u_fifo\.data_fifo\[6\]\[6\]\$_DFFE_PN0P_
*1706 u_fifo\.data_fifo\[6\]\[7\]\$_DFFE_PN0P_
*1707 u_fifo\.data_fifo\[7\]\[0\]\$_DFFE_PN0P_
*1708 u_fifo\.data_fifo\[7\]\[1\]\$_DFFE_PN0P_
*1709 u_fifo\.data_fifo\[7\]\[2\]\$_DFFE_PN0P_
*1710 u_fifo\.data_fifo\[7\]\[3\]\$_DFFE_PN0P_
*1711 u_fifo\.data_fifo\[7\]\[4\]\$_DFFE_PN0P_
*1712 u_fifo\.data_fifo\[7\]\[5\]\$_DFFE_PN0P_
*1713 u_fifo\.data_fifo\[7\]\[6\]\$_DFFE_PN0P_
*1714 u_fifo\.data_fifo\[7\]\[7\]\$_DFFE_PN0P_
*1715 u_fifo\.data_fifo\[8\]\[0\]\$_DFFE_PN0P_
*1716 u_fifo\.data_fifo\[8\]\[1\]\$_DFFE_PN0P_
*1717 u_fifo\.data_fifo\[8\]\[2\]\$_DFFE_PN0P_
*1718 u_fifo\.data_fifo\[8\]\[3\]\$_DFFE_PN0P_
*1719 u_fifo\.data_fifo\[8\]\[4\]\$_DFFE_PN0P_
*1720 u_fifo\.data_fifo\[8\]\[5\]\$_DFFE_PN0P_
*1721 u_fifo\.data_fifo\[8\]\[6\]\$_DFFE_PN0P_