*SPEF "ieee 1481-1999"
*DESIGN "lfsr_4bit"
*DATE "01:57:20 Tuesday April 28, 2026"
*VENDOR "The OpenROAD Project"
*PROGRAM "OpenROAD"
*VERSION "26Q1-2966-g29d97c45b3"
*DESIGN_FLOW "NAME_SCOPE LOCAL" "PIN_CAP NONE"
*DIVIDER /
*DELIMITER :
*BUS_DELIMITER []
*T_UNIT 1 NS
*C_UNIT 1 PF
*R_UNIT 1 OHM
*L_UNIT 1 HENRY

*NAME_MAP
*1 _0_
*2 _1_
*3 _2_
*4 _3_
*5 _4_
*6 clk
*7 d\[1\]
*8 d\[2\]
*9 d\[3\]
*10 net1
*11 net2
*14 res
*15 y
*16 clknet_0_clk
*17 clknet_1_0__leaf_clk
*18 clknet_1_1__leaf_clk
*19 _5_
*20 d\[0\]\$_DFF_PN1_
*21 d\[1\]\$_DFF_PN1_
*22 d\[2\]\$_DFF_PN1_
*23 d\[3\]\$_DFF_PN1_
*24 PHY_EDGE_ROW_0_Right_0
*25 PHY_EDGE_ROW_1_Right_1
*26 PHY_EDGE_ROW_2_Right_2
*27 PHY_EDGE_ROW_3_Right_3
*28 PHY_EDGE_ROW_4_Right_4
*29 PHY_EDGE_ROW_5_Right_5
*30 PHY_EDGE_ROW_6_Right_6
*31 PHY_EDGE_ROW_7_Right_7
*32 PHY_EDGE_ROW_8_Right_8
*33 PHY_EDGE_ROW_9_Right_9
*34 PHY_EDGE_ROW_10_Right_10
*35 PHY_EDGE_ROW_11_Right_11
*36 PHY_EDGE_ROW_12_Right_12
*37 PHY_EDGE_ROW_13_Right_13
*38 PHY_EDGE_ROW_14_Right_14
*39 PHY_EDGE_ROW_15_Right_15
*40 PHY_EDGE_ROW_16_Right_16
*41 PHY_EDGE_ROW_17_Right_17
*42 PHY_EDGE_ROW_18_Right_18
*43 PHY_EDGE_ROW_19_Right_19
*44 PHY_EDGE_ROW_20_Right_20
*45 PHY_EDGE_ROW_21_Right_21
*46 PHY_EDGE_ROW_22_Right_22
*47 PHY_EDGE_ROW_23_Right_23
*48 PHY_EDGE_ROW_24_Right_24
*49 PHY_EDGE_ROW_25_Right_25
*50 PHY_EDGE_ROW_26_Right_26
*51 PHY_EDGE_ROW_27_Right_27
*52 PHY_EDGE_ROW_28_Right_28
*53 PHY_EDGE_ROW_29_Right_29
*54 PHY_EDGE_ROW_30_Right_30
*55 PHY_EDGE_ROW_31_Right_31
*56 PHY_EDGE_ROW_0_Left_32
*57 PHY_EDGE_ROW_1_Left_33
*58 PHY_EDGE_ROW_2_Left_34
*59 PHY_EDGE_ROW_3_Left_35
*60 PHY_EDGE_ROW_4_Left_36
*61 PHY_EDGE_ROW_5_Left_37
*62 PHY_EDGE_ROW_6_Left_38
*63 PHY_EDGE_ROW_7_Left_39
*64 PHY_EDGE_ROW_8_Left_40
*65 PHY_EDGE_ROW_9_Left_41
*66 PHY_EDGE_ROW_10_Left_42
*67 PHY_EDGE_ROW_11_Left_43
*68 PHY_EDGE_ROW_12_Left_44
*69 PHY_EDGE_ROW_13_Left_45
*70 PHY_EDGE_ROW_14_Left_46
*71 PHY_EDGE_ROW_15_Left_47
*72 PHY_EDGE_ROW_16_Left_48
*73 PHY_EDGE_ROW_17_Left_49
*74 PHY_EDGE_ROW_18_Left_50
*75 PHY_EDGE_ROW_19_Left_51
*76 PHY_EDGE_ROW_20_Left_52
*77 PHY_EDGE_ROW_21_Left_53
*78 PHY_EDGE_ROW_22_Left_54
*79 PHY_EDGE_ROW_23_Left_55
*80 PHY_EDGE_ROW_24_Left_56
*81 PHY_EDGE_ROW_25_Left_57
*82 PHY_EDGE_ROW_26_Left_58
*83 PHY_EDGE_ROW_27_Left_59
*84 PHY_EDGE_ROW_28_Left_60
*85 PHY_EDGE_ROW_29_Left_61
*86 PHY_EDGE_ROW_30_Left_62
*87 PHY_EDGE_ROW_31_Left_63
*88 input1
*89 output2
*90 clkbuf_0_clk
*91 clkbuf_1_0__f_clk
*92 clkbuf_1_1__f_clk
*93 FILLER_0_1
*94 FILLER_0_33
*95 FILLER_0_65
*96 FILLER_0_97
*97 FILLER_0_129
*98 FILLER_0_161
*99 FILLER_0_193
*100 FILLER_0_225
*101 FILLER_0_233
*102 FILLER_0_237
*103 FILLER_0_239
*104 FILLER_1_1
*105 FILLER_1_33
*106 FILLER_1_65
*107 FILLER_1_97
*108 FILLER_1_129
*109 FILLER_1_161
*110 FILLER_1_193
*111 FILLER_1_225
*112 FILLER_1_233
*113 FILLER_1_237
*114 FILLER_1_239
*115 FILLER_2_1
*116 FILLER_2_33
*117 FILLER_2_65
*118 FILLER_2_97
*119 FILLER_2_129
*120 FILLER_2_161
*121 FILLER_2_193
*122 FILLER_2_225
*123 FILLER_2_233
*124 FILLER_2_237
*125 FILLER_2_239
*126 FILLER_3_1
*127 FILLER_3_33
*128 FILLER_3_65
*129 FILLER_3_97
*130 FILLER_3_129
*131 FILLER_3_161
*132 FILLER_3_193
*133 FILLER_3_225
*134 FILLER_3_233
*135 FILLER_3_237
*136 FILLER_3_239
*137 FILLER_4_1
*138 FILLER_4_33
*139 FILLER_4_65
*140 FILLER_4_97
*141 FILLER_4_129
*142 FILLER_4_161
*143 FILLER_4_193
*144 FILLER_4_225
*145 FILLER_4_233
*146 FILLER_4_237
*147 FILLER_4_239
*148 FILLER_5_1
*149 FILLER_5_33
*150 FILLER_5_65
*151 FILLER_5_97
*152 FILLER_5_129
*153 FILLER_5_161
*154 FILLER_5_193
*155 FILLER_5_225
*156 FILLER_5_233
*157 FILLER_5_237
*158 FILLER_5_239
*159 FILLER_6_1
*160 FILLER_6_33
*161 FILLER_6_65
*162 FILLER_6_97
*163 FILLER_6_129
*164 FILLER_6_161
*165 FILLER_6_193
*166 FILLER_6_225
*167 FILLER_6_233
*168 FILLER_6_237
*169 FILLER_6_239
*170 FILLER_7_1
*171 FILLER_7_33
*172 FILLER_7_65
*173 FILLER_7_97
*174 FILLER_7_129
*175 FILLER_7_161
*176 FILLER_7_193
*177 FILLER_7_225
*178 FILLER_7_233
*179 FILLER_7_237
*180 FILLER_7_239
*181 FILLER_8_1
*182 FILLER_8_33
*183 FILLER_8_65
*184 FILLER_8_97
*185 FILLER_8_129
*186 FILLER_8_161
*187 FILLER_8_193
*188 FILLER_8_225
*189 FILLER_8_233
*190 FILLER_8_237
*191 FILLER_8_239
*192 FILLER_9_1
*193 FILLER_9_33
*194 FILLER_9_65
*195 FILLER_9_97
*196 FILLER_9_129
*197 FILLER_9_161
*198 FILLER_9_193
*199 FILLER_9_225
*200 FILLER_9_233
*201 FILLER_9_237
*202 FILLER_9_239
*203 FILLER_10_1
*204 FILLER_10_33
*205 FILLER_10_65
*206 FILLER_10_97
*207 FILLER_10_129
*208 FILLER_10_161
*209 FILLER_10_193
*210 FILLER_10_225
*211 FILLER_10_233
*212 FILLER_10_237
*213 FILLER_10_239
*214 FILLER_11_1
*215 FILLER_11_33
*216 FILLER_11_65
*217 FILLER_11_97
*218 FILLER_11_129
*219 FILLER_11_161
*220 FILLER_11_193
*221 FILLER_11_225
*222 FILLER_11_233
*223 FILLER_11_237
*224 FILLER_11_239
*225 FILLER_12_1
*226 FILLER_12_33
*227 FILLER_12_65
*228 FILLER_12_97
*229 FILLER_12_129
*230 FILLER_12_161
*231 FILLER_12_193
*232 FILLER_12_225
*233 FILLER_12_233
*234 FILLER_12_237
*235 FILLER_12_239
*236 FILLER_13_1
*237 FILLER_13_33
*238 FILLER_13_65
*239 FILLER_13_97
*240 FILLER_13_129
*241 FILLER_13_161
*242 FILLER_13_193
*243 FILLER_13_225
*244 FILLER_13_233
*245 FILLER_13_237
*246 FILLER_13_239
*247 FILLER_14_1
*248 FILLER_14_33
*249 FILLER_14_65
*250 FILLER_14_97
*251 FILLER_14_129
*252 FILLER_14_161
*253 FILLER_14_193
*254 FILLER_14_225
*255 FILLER_14_233
*256 FILLER_14_237
*257 FILLER_14_239
*258 FILLER_15_1
*259 FILLER_15_33
*260 FILLER_15_65
*261 FILLER_15_97
*262 FILLER_15_129
*263 FILLER_15_161
*264 FILLER_15_193
*265 FILLER_15_225
*266 FILLER_15_233
*267 FILLER_15_237
*268 FILLER_15_239
*269 FILLER_16_1
*270 FILLER_16_33
*271 FILLER_16_65
*272 FILLER_16_97
*273 FILLER_16_129
*274 FILLER_16_161
*275 FILLER_16_193
*276 FILLER_16_225
*277 FILLER_16_233
*278 FILLER_16_237
*279 FILLER_16_239
*280 FILLER_17_1
*281 FILLER_17_33
*282 FILLER_17_65
*283 FILLER_17_97
*284 FILLER_17_129
*285 FILLER_17_145
*286 FILLER_17_147
*287 FILLER_17_151
*288 FILLER_17_183
*289 FILLER_17_215
*290 FILLER_17_231
*291 FILLER_17_239
*292 FILLER_18_1
*293 FILLER_18_33
*294 FILLER_18_65
*295 FILLER_18_97
*296 FILLER_18_129
*297 FILLER_18_161
*298 FILLER_18_193
*299 FILLER_18_225
*300 FILLER_18_233
*301 FILLER_18_237
*302 FILLER_18_239
*303 FILLER_19_1
*304 FILLER_19_33
*305 FILLER_19_65
*306 FILLER_19_97
*307 FILLER_19_129
*308 FILLER_19_161
*309 FILLER_19_193
*310 FILLER_19_225
*311 FILLER_19_233
*312 FILLER_19_237
*313 FILLER_19_239
*314 FILLER_20_1
*315 FILLER_20_33
*316 FILLER_20_65
*317 FILLER_20_97
*318 FILLER_20_129
*319 FILLER_20_161
*320 FILLER_20_193
*321 FILLER_20_225
*322 FILLER_20_233
*323 FILLER_20_237
*324 FILLER_20_239
*325 FILLER_21_1
*326 FILLER_21_33
*327 FILLER_21_65
*328 FILLER_21_97
*329 FILLER_21_129
*330 FILLER_21_161
*331 FILLER_21_193
*332 FILLER_21_225
*333 FILLER_21_233
*334 FILLER_21_237
*335 FILLER_21_239
*336 FILLER_22_1
*337 FILLER_22_33
*338 FILLER_22_65
*339 FILLER_22_97
*340 FILLER_22_129
*341 FILLER_22_161
*342 FILLER_22_193
*343 FILLER_22_225
*344 FILLER_22_233
*345 FILLER_22_237
*346 FILLER_22_239
*347 FILLER_23_1
*348 FILLER_23_33
*349 FILLER_23_65
*350 FILLER_23_97
*351 FILLER_23_129
*352 FILLER_23_161
*353 FILLER_23_193
*354 FILLER_23_225
*355 FILLER_23_233
*356 FILLER_23_237
*357 FILLER_23_239
*358 FILLER_24_1
*359 FILLER_24_33
*360 FILLER_24_65
*361 FILLER_24_97
*362 FILLER_24_129
*363 FILLER_24_161
*364 FILLER_24_193
*365 FILLER_24_225
*366 FILLER_24_233
*367 FILLER_24_237
*368 FILLER_24_239
*369 FILLER_25_1
*370 FILLER_25_33
*371 FILLER_25_65
*372 FILLER_25_97
*373 FILLER_25_129
*374 FILLER_25_161
*375 FILLER_25_193
*376 FILLER_25_225
*377 FILLER_25_233
*378 FILLER_25_237
*379 FILLER_25_239
*380 FILLER_26_1
*381 FILLER_26_33
*382 FILLER_26_65
*383 FILLER_26_97
*384 FILLER_26_129
*385 FILLER_26_161
*386 FILLER_26_193
*387 FILLER_26_225
*388 FILLER_26_233
*389 FILLER_26_237
*390 FILLER_26_239
*391 FILLER_27_1
*392 FILLER_27_33
*393 FILLER_27_65
*394 FILLER_27_97
*395 FILLER_27_113
*396 FILLER_27_121
*397 FILLER_27_125
*398 FILLER_27_132
*399 FILLER_27_164
*400 FILLER_27_196
*401 FILLER_27_228
*402 FILLER_27_236
*403 FILLER_28_1
*404 FILLER_28_33
*405 FILLER_28_65
*406 FILLER_28_97
*407 FILLER_28_113
*408 FILLER_28_121
*409 FILLER_28_149
*410 FILLER_28_158
*411 FILLER_28_190
*412 FILLER_28_222
*413 FILLER_28_238
*414 FILLER_29_1
*415 FILLER_29_33
*416 FILLER_29_65
*417 FILLER_29_97
*418 FILLER_29_105
*419 FILLER_29_107
*420 FILLER_29_148
*421 FILLER_29_180
*422 FILLER_29_212
*423 FILLER_29_228
*424 FILLER_29_236
*425 FILLER_30_1
*426 FILLER_30_33
*427 FILLER_30_65
*428 FILLER_30_97
*429 FILLER_30_113
*430 FILLER_30_141
*431 FILLER_30_173
*432 FILLER_30_205
*433 FILLER_30_237
*434 FILLER_30_239
*435 FILLER_31_1
*436 FILLER_31_33
*437 FILLER_31_65
*438 FILLER_31_97
*439 FILLER_31_105
*440 FILLER_31_109
*441 FILLER_31_115
*442 FILLER_31_123
*443 FILLER_31_127
*444 FILLER_31_159
*445 FILLER_31_191
*446 FILLER_31_223
*447 FILLER_31_239

*PORTS
clk I
res I
y O

*D_NET *1 0.000483089
*CONN
*I *23:D I *D DFFS_X1
*I *19:Z O *D XOR2_X1
*CAP
1 *23:D 8.30674e-05
2 *19:Z 8.30674e-05
3 *23:D *19:A 3.8984e-05
4 *23:D *22:D 0.000224393
5 *23:D *16:19 9.15985e-06
6 *23:D *16:35 3.93058e-05
7 *23:D *18:8 5.11191e-06
*RES
1 *19:Z *23:D 35.75 
*END

*D_NET *6 0.000819438
*CONN
*P clk I
*I *90:A I *D CLKBUF_X3
*CAP
1 clk 0.000359964
2 *90:A 0
3 *6:18 0.000359964
4 *6:18 *88:A 6.37813e-06
5 *6:18 *16:19 9.31332e-05
*RES
1 clk *6:18 27.9379 
2 *6:18 *90:A 10 
*END

*D_NET *7 0.000232415
*CONN
*I *20:D I *D DFFS_X1
*I *21:Q O *D DFFS_X1
*CAP
1 *20:D 0.000105824
2 *21:Q 0.000105824
3 *20:D *21:CK 0
4 *20:D *23:SN 0
5 *20:D *10:21 0
6 *20:D *10:34 2.07669e-05
*RES
1 *21:Q *20:D 31.7857 
*END

*D_NET *8 0.000186636
*CONN
*I *21:D I *D DFFS_X1
*I *22:Q O *D DFFS_X1
*CAP
1 *21:D 6.82679e-05
2 *22:Q 6.82679e-05
3 *21:D *21:CK 0
4 *21:D *22:SN 5.01004e-05
*RES
1 *22:Q *21:D 27.7143 
*END

*D_NET *9 0.000917376
*CONN
*I *19:A I *D XOR2_X1
*I *22:D I *D DFFS_X1
*I *23:Q O *D DFFS_X1
*CAP
1 *19:A 2.17003e-05
2 *22:D 0.000208212
3 *23:Q 6.73034e-06
4 *9:8 0.000236643
5 *19:A *11:6 8.43215e-07
6 *19:A *11:15 4.32144e-07
7 *19:A *18:8 4.26902e-05
8 *22:D *22:CK 6.38328e-07
9 *22:D *23:CK 8.27554e-05
10 *22:D *16:19 1.91718e-06
11 *22:D *18:8 5.14369e-05
12 *23:D *19:A 3.8984e-05
13 *23:D *22:D 0.000224393
*RES
1 *23:Q *9:8 10.75 
2 *9:8 *22:D 38.2143 
3 *9:8 *19:A 13.9643 
*END

*D_NET *10 0.000869869
*CONN
*I *20:SN I *D DFFS_X1
*I *23:SN I *D DFFS_X1
*I *21:SN I *D DFFS_X1
*I *22:SN I *D DFFS_X1
*I *88:Z O *D BUF_X1
*CAP
1 *20:SN 0
2 *23:SN 7.69926e-05
3 *21:SN 0
4 *22:SN 7.211e-05
5 *88:Z 3.4022e-05
6 *10:34 0.000172181
7 *10:21 0.000142601
8 *10:8 0.000153545
9 *22:SN *21:CK 5.3188e-05
10 *22:SN *22:CK 0
11 *22:SN *88:A 0
12 *22:SN *17:6 0
13 *23:SN *20:CK 1.50753e-05
14 *23:SN *23:CK 6.32202e-06
15 *23:SN *11:6 0
16 *23:SN *18:8 2.09871e-05
17 *10:21 *21:CK 5.19786e-05
18 *10:34 *11:6 0
19 *20:D *23:SN 0
20 *20:D *10:21 0
21 *20:D *10:34 2.07669e-05
22 *21:D *22:SN 5.01004e-05
*RES
1 *88:Z *10:8 13.25 
2 *10:8 *22:SN 18.7143 
3 *10:8 *10:21 6.35715 
4 *10:21 *21:SN 10 
5 *10:21 *10:34 15.75 
6 *10:34 *23:SN 23.6429 
7 *10:34 *20:SN 5 
*END

*D_NET *11 0.00123797
*CONN
*I *89:A I *D BUF_X1
*I *19:B I *D XOR2_X1
*I *20:Q O *D DFFS_X1
*CAP
1 *89:A 0
2 *19:B 0
3 *20:Q 5.86717e-05
4 *11:15 0.000550963
5 *11:13 0.000559676
6 *11:6 6.73848e-05
7 *11:6 *20:CK 0
8 *11:15 *92:A 0
9 *11:15 *16:35 0
10 *19:A *11:6 8.43215e-07
11 *19:A *11:15 4.32144e-07
12 *23:SN *11:6 0
13 *10:34 *11:6 0
*RES
1 *20:Q *11:6 10.75 
2 *11:6 *19:B 5 
3 *11:6 *11:13 0.928572 
4 *11:13 *11:15 54.75 
5 *11:15 *89:A 5 
*END

*D_NET *14 0.000267993
*CONN
*P res I
*I *88:A I *D BUF_X1
*CAP
1 res 0.000130022
2 *88:A 0.000130022
3 *88:A *16:19 1.57149e-06
4 *22:SN *88:A 0
5 *6:18 *88:A 6.37813e-06
*RES
1 res *88:A 26.3979 
*END

*D_NET *15 0.00133699
*CONN
*P y O
*I *89:Z O *D BUF_X1
*CAP
1 y 6.30925e-05
2 *89:Z 0
3 *15:8 0.000668495
4 *15:6 0.000605402
*RES
1 *89:Z *15:6 10 
2 *15:6 *15:8 68 
3 *15:8 y 10.1975 
*END

*D_NET *16 0.00112937
*CONN
*I *92:A I *D CLKBUF_X3
*I *91:A I *D CLKBUF_X3
*I *90:Z O *D CLKBUF_X3
*CAP
1 *92:A 2.18103e-05
2 *91:A 0
3 *90:Z 0
4 *16:35 0.000177663
5 *16:19 0.00031448
6 *16:6 0.000470332
7 *16:35 *18:8 0
8 *22:D *16:19 1.91718e-06
9 *23:D *16:19 9.15985e-06
10 *23:D *16:35 3.93058e-05
11 *88:A *16:19 1.57149e-06
12 *6:18 *16:19 9.31332e-05
13 *11:15 *92:A 0
14 *11:15 *16:35 0
*RES
1 *90:Z *16:6 10 
2 *16:6 *16:19 31.5829 
3 *16:19 *91:A 10 
4 *16:6 *16:35 23.2857 
5 *16:35 *92:A 7.25 
*END

*D_NET *17 0.000499903
*CONN
*I *21:CK I *D DFFS_X1
*I *22:CK I *D DFFS_X1
*I *91:Z O *D CLKBUF_X3
*CAP
1 *21:CK 8.29666e-05
2 *22:CK 6.99127e-05
3 *91:Z 4.41698e-05
4 *17:6 0.000197049
5 *20:D *21:CK 0
6 *21:D *21:CK 0
7 *22:D *22:CK 6.38328e-07
8 *22:SN *21:CK 5.3188e-05
9 *22:SN *22:CK 0
10 *22:SN *17:6 0
11 *10:21 *21:CK 5.19786e-05
*RES
1 *91:Z *17:6 9.25 
2 *17:6 *22:CK 22.0357 
3 *17:6 *21:CK 26.1071 
*END

*D_NET *18 0.000574406
*CONN
*I *20:CK I *D DFFS_X1
*I *23:CK I *D DFFS_X1
*I *92:Z O *D CLKBUF_X3
*CAP
1 *20:CK 5.7998e-05
2 *23:CK 2.34509e-05
3 *92:Z 9.35647e-05
4 *18:8 0.000175014
5 *19:A *18:8 4.26902e-05
6 *22:D *23:CK 8.27554e-05
7 *22:D *18:8 5.14369e-05
8 *23:D *18:8 5.11191e-06
9 *23:SN *20:CK 1.50753e-05
10 *23:SN *23:CK 6.32202e-06
11 *23:SN *18:8 2.09871e-05
12 *11:6 *20:CK 0
13 *16:35 *18:8 0
*RES
1 *92:Z *18:8 21.7857 
2 *18:8 *23:CK 14.3214 
3 *18:8 *20:CK 16.1786 
*END
